*Heading
** Job name: Cube_R0 Model name: Model-1
** Generated by: Abaqus/CAE 2017
*Preprint, echo=NO, model=NO, history=NO, contact=NO
**
** PARTS
**
*Part, name=Cube
*Node
      1,           8.,           2.,           8.
      2,           8.,           8.,           8.
      3,           2.,           8.,           8.
      4,           2.,           2.,           8.
      5,           8.,           2.,           2.
      6,           8.,           8.,           2.
      7,           2.,           8.,           2.
      8,           2.,           2.,           2.
      9,          10.,           8.,           8.
     10,          10.,           2.,           8.
     11,          10.,           8.,           2.
     12,          10.,           2.,           2.
     13,           8.,          10.,           8.
     14,          10.,          10.,           8.
     15,           8.,          10.,           2.
     16,          10.,          10.,           2.
     17,           0.,           8.,           8.
     18,           2.,          10.,           8.
     19,           0.,          10.,           8.
     20,           0.,           8.,           2.
** ... 9241 like lines cut
*Element, type=C3D8
   1,  174, 1365, 4349, 1123,    1,   65,  881,  108
   2, 1365, 1366, 4350, 4349,   65,   66,  882,  881
   3, 1366, 1367, 4351, 4350,   66,   67,  883,  882
   4, 1367, 1368, 4352, 4351,   67,   68,  884,  883
   5, 1368, 1369, 4353, 4352,   68,   69,  885,  884
   6, 1369, 1370, 4354, 4353,   69,   70,  886,  885
   7, 1370, 1371, 4355, 4354,   70,   71,  887,  886
   8, 1371, 1372, 4356, 4355,   71,   72,  888,  887
   9, 1372, 1373, 4357, 4356,   72,   73,  889,  888
  10, 1373, 1374, 4358, 4357,   73,   74,  890,  889
  11, 1374, 1375, 4359, 4358,   74,   75,  891,  890
  12, 1375,  196, 1244, 4359,   75,    2,   76,  891
  13, 1123, 4349, 4360, 1124,  108,  881,  892,  107
  14, 4349, 4350, 4361, 4360,  881,  882,  893,  892
  15, 4350, 4351, 4362, 4361,  882,  883,  894,  893
  16, 4351, 4352, 4363, 4362,  883,  884,  895,  894
  17, 4352, 4353, 4364, 4363,  884,  885,  896,  895
  18, 4353, 4354, 4365, 4364,  885,  886,  897,  896
  19, 4354, 4355, 4366, 4365,  886,  887,  898,  897
  20, 4355, 4356, 4367, 4366,  887,  888,  899,  898
** ... 7980 like lines cut
*Nset, nset=Set-1
    1,    2,    3,    4,    5,    6,    7,    8,    9,   10,   11,   12,   13,   14,   15,   16
   17,   18,   19,   20,   21,   22,   23,   24,   25,   26,   27,   28,   29,   30,   31,   32
   33,   34,   35,   36,   37,   38,   39,   40,   41,   42,   43,   44,   45,   46,   47,   48
   49,   50,   51,   52,   53,   54,   55,   56,   57,   58,   59,   60,   61,   62,   63,   64
   65,   66,   67,   68,   69,   70,   71,   72,   73,   74,   75,   76,   77,   78,   79,   80
   81,   82,   83,   84,   85,   86,   87,   88,   89,   90,   91,   92,   93,   94,   95,   96
   97,   98,   99,  100,  101,  102,  103,  104,  105,  106,  107,  108,  109,  110,  111,  112
  113,  114,  115,  116,  117,  118,  119,  120,  121,  122,  123,  124,  125,  126,  127,  128
  129,  130,  131,  132,  133,  134,  135,  136,  137,  138,  139,  140,  141,  142,  143,  144
  145,  146,  147,  148,  149,  150,  151,  152,  153,  154,  155,  156,  157,  158,  159,  160
  161,  162,  163,  164,  165,  166,  167,  168,  169,  170,  171,  172,  173,  174,  175,  176
  177,  178,  179,  180,  181,  182,  183,  184,  185,  186,  187,  188,  189,  190,  191,  192
  193,  194,  195,  196,  197,  198,  199,  200,  201,  202,  203,  204,  205,  206,  207,  208
  209,  210,  211,  212,  213,  214,  215,  216,  217,  218,  219,  220,  221,  222,  223,  224
  225,  226,  227,  228,  229,  230,  231,  232,  233,  234,  235,  236,  237,  238,  239,  240
  241,  242,  243,  244,  245,  246,  247,  248,  249,  250,  251,  252,  253,  254,  255,  256
  257,  258,  259,  260,  261,  262,  263,  264,  265,  266,  267,  268,  269,  270,  271,  272
  273,  274,  275,  276,  277,  278,  279,  280,  281,  282,  283,  284,  285,  286,  287,  288
  289,  290,  291,  292,  293,  294,  295,  296,  297,  298,  299,  300,  301,  302,  303,  304
  305,  306,  307,  308,  309,  310,  311,  312,  313,  314,  315,  316,  317,  318,  319,  320
** ... 400 like lines cut
*Elset, elset=Set-1
 1729, 1730, 1731, 1732, 1733, 1734, 1735, 1736, 1737, 1738, 1739, 1740, 1741, 1742, 1743, 1744
 1745, 1746, 1747, 1748, 1749, 1750, 1751, 1752, 1753, 1754, 1755, 1756, 1757, 1758, 1759, 1760
 1761, 1762, 1763, 1764, 1765, 1766, 1767, 1768, 1769, 1770, 1771, 1772, 1773, 1774, 1775, 1776
 1777, 1778, 1779, 1780, 1781, 1782, 1783, 1784, 1785, 1786, 1787, 1788, 1789, 1790, 1791, 1792
 1793, 1794, 1795, 1796, 1797, 1798, 1799, 1800, 1801, 1802, 1803, 1804, 1805, 1806, 1807, 1808
 1809, 1810, 1811, 1812, 1813, 1814, 1815, 1816, 1817, 1818, 1819, 1820, 1821, 1822, 1823, 1824
 1825, 1826, 1827, 1828, 1829, 1830, 1831, 1832, 1833, 1834, 1835, 1836, 1837, 1838, 1839, 1840
 1841, 1842, 1843, 1844, 1845, 1846, 1847, 1848, 1849, 1850, 1851, 1852, 1853, 1854, 1855, 1856
 1857, 1858, 1859, 1860, 1861, 1862, 1863, 1864, 1865, 1866, 1867, 1868, 1869, 1870, 1871, 1872
 1873, 1874, 1875, 1876, 1877, 1878, 1879, 1880, 1881, 1882, 1883, 1884, 1885, 1886, 1887, 1888
 1889, 1890, 1891, 1892, 1893, 1894, 1895, 1896, 1897, 1898, 1899, 1900, 1901, 1902, 1903, 1904
 1905, 1906, 1907, 1908, 1909, 1910, 1911, 1912, 1913, 1914, 1915, 1916, 1917, 1918, 1919, 1920
 1921, 1922, 1923, 1924, 1925, 1926, 1927, 1928, 1929, 1930, 1931, 1932, 1933, 1934, 1935, 1936
 1937, 1938, 1939, 1940, 1941, 1942, 1943, 1944, 1945, 1946, 1947, 1948, 1949, 1950, 1951, 1952
 1953, 1954, 1955, 1956, 1957, 1958, 1959, 1960, 1961, 1962, 1963, 1964, 1965, 1966, 1967, 1968
 1969, 1970, 1971, 1972, 1973, 1974, 1975, 1976, 1977, 1978, 1979, 1980, 1981, 1982, 1983, 1984
 1985, 1986, 1987, 1988, 1989, 1990, 1991, 1992, 1993, 1994, 1995, 1996, 1997, 1998, 1999, 2000
 2001, 2002, 2003, 2004, 2005, 2006, 2007, 2008, 2009, 2010, 2011, 2012, 2013, 2014, 2015, 2016
 2017, 2018, 2019, 2020, 2021, 2022, 2023, 2024, 2025, 2026, 2027, 2028, 2029, 2030, 2031, 2032
 2033, 2034, 2035, 2036, 2037, 2038, 2039, 2040, 2041, 2042, 2043, 2044, 2045, 2046, 2047, 2048
** ... 300 like lines cut
*Nset, nset=Set-2
    1,    2,    3,    4,    5,    6,    7,    8,   33,   34,   35,   36,   51,   52,   55,   58
   65,   66,   67,   68,   69,   70,   71,   72,   73,   74,   75,   76,   77,   78,   79,   80
   81,   82,   83,   84,   85,   86,   87,   88,   89,   90,   91,   92,   93,   94,   95,   96
   97,   98,   99,  100,  101,  102,  103,  104,  105,  106,  107,  108,  109,  110,  111,  112
  113,  114,  115,  116,  117,  118,  119,  120,  121,  122,  123,  124,  125,  126,  127,  128
  129,  130,  131,  132,  133,  134,  135,  136,  137,  138,  139,  140,  141,  142,  143,  144
  145,  146,  147,  148,  149,  150,  151,  152,  491,  492,  493,  494,  495,  496,  497,  498
  499,  500,  501,  502,  503,  504,  505,  506,  507,  508,  509,  510,  511,  512,  513,  514
  515,  516,  517,  518,  519,  520,  521,  522,  523,  524,  525,  526,  527,  528,  529,  530
  531,  532,  533,  534,  535,  536,  537,  538,  539,  540,  541,  542,  543,  544,  545,  546
  714,  715,  716,  717,  718,  719,  720,  721,  722,  723,  724,  725,  726,  727,  728,  729
  730,  737,  738,  739,  740,  741,  742,  743,  744,  745,  746,  747,  768,  769,  770,  789
  790,  791,  792,  793,  794,  795,  796,  797,  798,  799,  800,  801,  802,  803,  804,  805
  806,  807,  808,  809,  810,  811,  812,  813,  881,  882,  883,  884,  885,  886,  887,  888
  889,  890,  891,  892,  893,  894,  895,  896,  897,  898,  899,  900,  901,  902,  903,  904
  905,  906,  907,  908,  909,  910,  911,  912,  913,  914,  915,  916,  917,  918,  919,  920
  921,  922,  923,  924,  925,  926,  927,  928,  929,  930,  931,  932,  933,  934,  935,  936
  937,  938,  939,  940,  941,  942,  943,  944,  945,  946,  947,  948,  949,  950,  951,  952
  953,  954,  955,  956,  957,  958,  959,  960,  961,  962,  963,  964,  965,  966,  967,  968
  969,  970,  971,  972,  973,  974,  975,  976,  977,  978,  979,  980,  981,  982,  983,  984
** ... 86 like lines cut
*Elset, elset=Set-2
 4225, 4226, 4227, 4228, 4229, 4230, 4231, 4232, 4233, 4234, 4235, 4236, 4237, 4238, 4239, 4240
 4241, 4242, 4243, 4244, 4245, 4246, 4247, 4248, 4249, 4250, 4251, 4252, 4253, 4254, 4255, 4256
 4257, 4258, 4259, 4260, 4261, 4262, 4263, 4264, 4265, 4266, 4267, 4268, 4269, 4270, 4271, 4272
 4273, 4274, 4275, 4276, 4277, 4278, 4279, 4280, 4281, 4282, 4283, 4284, 4285, 4286, 4287, 4288
 4289, 4290, 4291, 4292, 4293, 4294, 4295, 4296, 4297, 4298, 4299, 4300, 4301, 4302, 4303, 4304
 4305, 4306, 4307, 4308, 4309, 4310, 4311, 4312, 4313, 4314, 4315, 4316, 4317, 4318, 4319, 4320
 4321, 4322, 4323, 4324, 4325, 4326, 4327, 4328, 4329, 4330, 4331, 4332, 4333, 4334, 4335, 4336
 4337, 4338, 4339, 4340, 4341, 4342, 4343, 4344, 4345, 4346, 4347, 4348, 4349, 4350, 4351, 4352
 4353, 4354, 4355, 4356, 4357, 4358, 4359, 4360, 4361, 4362, 4363, 4364, 4365, 4366, 4367, 4368
 4369, 4370, 4371, 4372, 4373, 4374, 4375, 4376, 4377, 4378, 4379, 4380, 4381, 4382, 4383, 4384
 4385, 4386, 4387, 4388, 4389, 4390, 4391, 4392, 4393, 4394, 4395, 4396, 4397, 4398, 4399, 4400
 4401, 4402, 4403, 4404, 4405, 4406, 4407, 4408, 4409, 4410, 4411, 4412, 4413, 4414, 4415, 4416
 4417, 4418, 4419, 4420, 4421, 4422, 4423, 4424, 4425, 4426, 4427, 4428, 4429, 4430, 4431, 4432
 4433, 4434, 4435, 4436, 4437, 4438, 4439, 4440, 4441, 4442, 4443, 4444, 4445, 4446, 4447, 4448
 4449, 4450, 4451, 4452, 4453, 4454, 4455, 4456, 4457, 4458, 4459, 4460, 4461, 4462, 4463, 4464
 4465, 4466, 4467, 4468, 4469, 4470, 4471, 4472, 4473, 4474, 4475, 4476, 4477, 4478, 4479, 4480
 4481, 4482, 4483, 4484, 4485, 4486, 4487, 4488, 4489, 4490, 4491, 4492, 4493, 4494, 4495, 4496
 4497, 4498, 4499, 4500, 4501, 4502, 4503, 4504, 4505, 4506, 4507, 4508, 4509, 4510, 4511, 4512
 4513, 4514, 4515, 4516, 4517, 4518, 4519, 4520, 4521, 4522, 4523, 4524, 4525, 4526, 4527, 4528
 4529, 4530, 4531, 4532, 4533, 4534, 4535, 4536, 4537, 4538, 4539, 4540, 4541, 4542, 4543, 4544
** ... 52 like lines cut
*Nset, nset=Set-3
    1,    2,    3,    4,    5,    6,    7,    8,   65,   66,   67,   68,   69,   70,   71,   72
   73,   74,   75,   76,   77,   78,   79,   80,   81,   82,   83,   84,   85,   86,   87,   88
   89,   90,   91,   92,   93,   94,   95,   96,   97,   98,   99,  100,  101,  102,  103,  104
  105,  106,  107,  108,  109,  110,  111,  112,  113,  114,  115,  116,  117,  118,  119,  120
  121,  122,  123,  124,  125,  126,  127,  128,  129,  130,  131,  132,  133,  134,  135,  136
  137,  138,  139,  140,  141,  142,  143,  144,  145,  146,  147,  148,  149,  150,  151,  152
  153,  154,  155,  156,  157,  158,  159,  160,  161,  162,  163,  164,  165,  166,  167,  168
  169,  170,  171,  172,  173,  174,  175,  176,  177,  178,  179,  180,  181,  182,  183,  184
  185,  186,  187,  188,  189,  190,  191,  192,  193,  194,  195,  196,  881,  882,  883,  884
  885,  886,  887,  888,  889,  890,  891,  892,  893,  894,  895,  896,  897,  898,  899,  900
  901,  902,  903,  904,  905,  906,  907,  908,  909,  910,  911,  912,  913,  914,  915,  916
  917,  918,  919,  920,  921,  922,  923,  924,  925,  926,  927,  928,  929,  930,  931,  932
  933,  934,  935,  936,  937,  938,  939,  940,  941,  942,  943,  944,  945,  946,  947,  948
  949,  950,  951,  952,  953,  954,  955,  956,  957,  958,  959,  960,  961,  962,  963,  964
  965,  966,  967,  968,  969,  970,  971,  972,  973,  974,  975,  976,  977,  978,  979,  980
  981,  982,  983,  984,  985,  986,  987,  988,  989,  990,  991,  992,  993,  994,  995,  996
  997,  998,  999, 1000, 1001, 1002, 1003, 1004, 1005, 1006, 1007, 1008, 1009, 1010, 1011, 1012
 1013, 1014, 1015, 1016, 1017, 1018, 1019, 1020, 1021, 1022, 1023, 1024, 1025, 1026, 1027, 1028
 1029, 1030, 1031, 1032, 1033, 1034, 1035, 1036, 1037, 1038, 1039, 1040, 1041, 1042, 1043, 1044
 1045, 1046, 1047, 1048, 1049, 1050, 1051, 1052, 1053, 1054, 1055, 1056, 1057, 1058, 1059, 1060
** ... 118 like lines cut
*Elset, elset=Set-3, generate
    1,  1728,     1
*Nset, nset=Set-4
    1,    2,    3,    4,    5,    6,    7,    8,    9,   10,   11,   12,   13,   14,   15,   16
   17,   18,   19,   20,   21,   22,   23,   24,   25,   26,   27,   28,   29,   30,   31,   32
   33,   34,   35,   36,   37,   38,   39,   40,   41,   42,   43,   44,   45,   46,   47,   48
   49,   50,   51,   52,   53,   54,   55,   56,   57,   58,   59,   60,   61,   62,   63,   64
   65,   66,   67,   68,   69,   70,   71,   72,   73,   74,   75,   76,   77,   78,   79,   80
   81,   82,   83,   84,   85,   86,   87,   88,   89,   90,   91,   92,   93,   94,   95,   96
   97,   98,   99,  100,  101,  102,  103,  104,  105,  106,  107,  108,  109,  110,  111,  112
  113,  114,  115,  116,  117,  118,  119,  120,  121,  122,  123,  124,  125,  126,  127,  128
  129,  130,  131,  132,  133,  134,  135,  136,  137,  138,  139,  140,  141,  142,  143,  144
  145,  146,  147,  148,  149,  150,  151,  152,  153,  154,  155,  156,  157,  158,  159,  160
  161,  162,  163,  164,  165,  166,  167,  168,  169,  170,  171,  172,  173,  174,  175,  176
  177,  178,  179,  180,  181,  182,  183,  184,  185,  186,  187,  188,  189,  190,  191,  192
  193,  194,  195,  196,  197,  198,  199,  200,  201,  202,  203,  204,  205,  206,  207,  208
  209,  210,  211,  212,  213,  214,  215,  216,  217,  218,  219,  220,  221,  222,  223,  224
  225,  226,  227,  228,  229,  230,  231,  232,  233,  234,  235,  236,  237,  238,  239,  240
  241,  242,  243,  244,  245,  246,  247,  248,  249,  250,  251,  252,  253,  254,  255,  256
  257,  258,  259,  260,  261,  262,  263,  264,  265,  266,  267,  268,  269,  270,  271,  272
  273,  274,  275,  276,  277,  278,  279,  280,  281,  282,  283,  284,  285,  286,  287,  288
  289,  290,  291,  292,  293,  294,  295,  296,  297,  298,  299,  300,  301,  302,  303,  304
  305,  306,  307,  308,  309,  310,  311,  312,  313,  314,  315,  316,  317,  318,  319,  320
** ... 476 like lines cut
*Elset, elset=Set-4, generate
 1729,  8000,     1
** Section: Percipittate
*Solid Section, elset=Set-3, material=Percipitate2
,
** Section: Channel
*Solid Section, elset=Set-4, material=Percipitate2
,
*End Part
**  
**
** ASSEMBLY
**
*Assembly, name=Assembly
**  
*Instance, name=Cube-1, part=Cube
*End Instance
**  
*Nset, nset=Set-1, instance=Cube-1
   17,   19,   20,   22,   23,   24,   26,   28,   41,   43,   44,   46,   53,   54,   56,   64
  302,  303,  304,  314,  315,  316,  317,  318,  319,  320,  321,  322,  323,  324,  325,  326
  327,  328,  329,  330,  331,  332,  333,  334,  335,  336,  337,  338,  353,  354,  355,  356
  357,  358,  359,  360,  361,  362,  363,  367,  368,  369,  370,  371,  372,  373,  374,  375
  376,  377,  378,  379,  380,  381,  382,  383,  384,  385,  386,  387,  388,  392,  393,  394
  401,  402,  403,  407,  408,  409,  410,  411,  412,  413,  414,  415,  416,  417,  594,  595
  596,  597,  598,  599,  600,  601,  602,  609,  610,  611,  612,  613,  614,  615,  616,  617
  618,  619,  620,  621,  622,  626,  627,  628,  632,  633,  634,  751,  752,  753,  754,  755
  756,  757,  758,  759,  760,  761,  765,  766,  767,  771,  772,  773,  774,  775,  776,  786
  787,  788,  872,  873,  874,  878,  879,  880, 1995, 1996, 1997, 1998, 1999, 2000, 2001, 2002
 2003, 2004, 2005, 2006, 2007, 2008, 2009, 2010, 2011, 2012, 2013, 2014, 2015, 2016, 2017, 2018
 2019, 2020, 2021, 2022, 2023, 2024, 2025, 2026, 2027, 2193, 2194, 2195, 2196, 2197, 2198, 2199
 2200, 2201, 2202, 2203, 2204, 2205, 2206, 2207, 2208, 2209, 2210, 2211, 2212, 2213, 2214, 2215
 2216, 2217, 2218, 2219, 2220, 2221, 2222, 2223, 2224, 2225, 2226, 2227, 2228, 2229, 2230, 2231
 2232, 2233, 2234, 2235, 2236, 2237, 2238, 2239, 2240, 2241, 2242, 2243, 2244, 2245, 2246, 2247
 2248, 2249, 2250, 2251, 2252, 2253, 2254, 2255, 2256, 2257, 2258, 2259, 2260, 2261, 2262, 2263
 2264, 2265, 2266, 2267, 2268, 2269, 2270, 2271, 2272, 2273, 2274, 2275, 2276, 2277, 2278, 2279
 2280, 2281, 2282, 2283, 2284, 2285, 2286, 2287, 2288, 2289, 2290, 2291, 2292, 2293, 2294, 2295
 2296, 2297, 2298, 2299, 2300, 2301, 2302, 2303, 2304, 2305, 2306, 2307, 2308, 2309, 2310, 2311
 2312, 2313, 2431, 2432, 2433, 2434, 2435, 2436, 2437, 2438, 2439, 2440, 2441, 2442, 2443, 2444
** ... 8 like lines cut
*Elset, elset=Set-1, instance=Cube-1
 2497, 2501, 2505, 2509, 2513, 2517, 2521, 2525, 2529, 2533, 2537, 2541, 2545, 2549, 2553, 2557
 2561, 2565, 2569, 2573, 2577, 2581, 2585, 2589, 2593, 2597, 2601, 2605, 2609, 2613, 2617, 2621
 2625, 2629, 2633, 2637, 2641, 2645, 2649, 2653, 2657, 2661, 2665, 2669, 2673, 2677, 2681, 2685
 2689, 2693, 2697, 2701, 2705, 2709, 2713, 2717, 2721, 2725, 2729, 2733, 2737, 2741, 2745, 2749
 2753, 2757, 2761, 2765, 2769, 2773, 2777, 2781, 2785, 2789, 2793, 2797, 2801, 2805, 2809, 2813
 2817, 2821, 2825, 2829, 2833, 2837, 2841, 2845, 2849, 2853, 2857, 2861, 2865, 2869, 2873, 2877
 2881, 2885, 2889, 2893, 2897, 2901, 2905, 2909, 2913, 2917, 2921, 2925, 2929, 2933, 2937, 2941
 2945, 2949, 2953, 2957, 2961, 2965, 2969, 2973, 2977, 2981, 2985, 2989, 2993, 2997, 3001, 3005
 3009, 3013, 3017, 3021, 3025, 3029, 3033, 3037, 3041, 3045, 3049, 3053, 3057, 3061, 3065, 3069
 3073, 3077, 3081, 3085, 3089, 3093, 3097, 3101, 3105, 3109, 3113, 3117, 3121, 3125, 3129, 3133
 3137, 3141, 3145, 3149, 3153, 3157, 3161, 3165, 3169, 3173, 3177, 3181, 3185, 3189, 3193, 3197
 3201, 3205, 3209, 3213, 3217, 3221, 3225, 3229, 3233, 3237, 3241, 3245, 3249, 3253, 3257, 3261
 3277, 3278, 3279, 3280, 3293, 3294, 3295, 3296, 3309, 3310, 3311, 3312, 3325, 3326, 3327, 3328
 3341, 3342, 3343, 3344, 3357, 3358, 3359, 3360, 3373, 3374, 3375, 3376, 3389, 3390, 3391, 3392
 3405, 3406, 3407, 3408, 3421, 3422, 3423, 3424, 3437, 3438, 3439, 3440, 3453, 3454, 3455, 3456
 5057, 5061, 5065, 5069, 5073, 5077, 5081, 5085, 5089, 5093, 5097, 5101, 5105, 5109, 5113, 5117
 5121, 5125, 5129, 5133, 5137, 5141, 5145, 5149, 5153, 5157, 5161, 5165, 5169, 5173, 5177, 5181
 5185, 5189, 5193, 5197, 5201, 5205, 5209, 5213, 5217, 5221, 5225, 5229, 5233, 5237, 5241, 5245
 5249, 5253, 5257, 5261, 5265, 5269, 5273, 5277, 5281, 5285, 5289, 5293, 5297, 5301, 5305, 5309
 5325, 5326, 5327, 5328, 5341, 5342, 5343, 5344, 5357, 5358, 5359, 5360, 5373, 5374, 5375, 5376
** ... 5 like lines cut
*Nset, nset=Set-2, instance=Cube-1
   25,   26,   27,   28,   29,   30,   31,   32,   45,   46,   47,   48,   56,   57,   61,   63
  395,  396,  397,  404,  405,  406,  407,  408,  409,  410,  411,  412,  413,  414,  415,  416
  417,  418,  419,  420,  421,  422,  423,  424,  425,  426,  427,  428,  432,  433,  434,  435
  436,  437,  438,  439,  440,  441,  442,  446,  447,  448,  449,  450,  451,  452,  453,  454
  455,  456,  457,  458,  459,  460,  461,  462,  463,  464,  465,  466,  467,  471,  472,  473
  477,  478,  479,  480,  481,  482,  483,  484,  485,  486,  487,  488,  489,  490,  629,  630
  631,  632,  633,  634,  635,  636,  637,  641,  642,  643,  644,  645,  646,  647,  648,  649
  650,  651,  652,  653,  654,  658,  659,  660,  661,  662,  663,  777,  778,  779,  783,  784
  785,  786,  787,  788,  829,  830,  831,  832,  833,  834,  835,  836,  837,  838,  839,  843
  844,  845,  863,  864,  865,  869,  870,  871, 2365, 2366, 2367, 2368, 2369, 2370, 2371, 2372
 2373, 2374, 2375, 2376, 2377, 2378, 2379, 2380, 2381, 2382, 2383, 2384, 2385, 2386, 2387, 2388
 2389, 2390, 2391, 2392, 2393, 2394, 2395, 2396, 2397, 2530, 2531, 2532, 2533, 2534, 2535, 2536
 2537, 2538, 2539, 2540, 2541, 2542, 2543, 2544, 2545, 2546, 2547, 2548, 2549, 2550, 2551, 2552
 2553, 2554, 2555, 2556, 2557, 2558, 2559, 2560, 2561, 2562, 2563, 2564, 2565, 2566, 2567, 2568
 2569, 2570, 2571, 2572, 2573, 2574, 2575, 2576, 2577, 2578, 2579, 2580, 2581, 2582, 2583, 2584
 2585, 2586, 2587, 2588, 2589, 2590, 2591, 2592, 2593, 2594, 2595, 2596, 2597, 2598, 2599, 2600
 2601, 2602, 2603, 2604, 2605, 2606, 2607, 2608, 2609, 2610, 2611, 2612, 2613, 2614, 2615, 2616
 2617, 2618, 2619, 2620, 2621, 2622, 2623, 2624, 2625, 2626, 2627, 2628, 2629, 2630, 2631, 2632
 2633, 2634, 2635, 2636, 2637, 2638, 2639, 2640, 2641, 2642, 2643, 2644, 2645, 2646, 2647, 2648
 2649, 2650, 2702, 2703, 2704, 2705, 2706, 2707, 2708, 2709, 2710, 2711, 2712, 2713, 2714, 2715
** ... 8 like lines cut
*Elset, elset=Set-2, instance=Cube-1
 3265, 3269, 3273, 3277, 3281, 3285, 3289, 3293, 3297, 3301, 3305, 3309, 3313, 3317, 3321, 3325
 3329, 3333, 3337, 3341, 3345, 3349, 3353, 3357, 3361, 3365, 3369, 3373, 3377, 3381, 3385, 3389
 3393, 3397, 3401, 3405, 3409, 3413, 3417, 3421, 3425, 3429, 3433, 3437, 3441, 3445, 3449, 3453
 3457, 3461, 3465, 3469, 3473, 3477, 3481, 3485, 3489, 3493, 3497, 3501, 3505, 3509, 3513, 3517
 3521, 3525, 3529, 3533, 3537, 3541, 3545, 3549, 3553, 3557, 3561, 3565, 3569, 3573, 3577, 3581
 3585, 3589, 3593, 3597, 3601, 3605, 3609, 3613, 3617, 3621, 3625, 3629, 3633, 3637, 3641, 3645
 3649, 3653, 3657, 3661, 3665, 3669, 3673, 3677, 3681, 3685, 3689, 3693, 3697, 3701, 3705, 3709
 3713, 3717, 3721, 3725, 3729, 3733, 3737, 3741, 3745, 3749, 3753, 3757, 3761, 3765, 3769, 3773
 3777, 3781, 3785, 3789, 3793, 3797, 3801, 3805, 3809, 3813, 3817, 3821, 3825, 3829, 3833, 3837
 3841, 3845, 3849, 3853, 3857, 3861, 3865, 3869, 3873, 3877, 3881, 3885, 3889, 3893, 3897, 3901
 3905, 3909, 3913, 3917, 3921, 3925, 3929, 3933, 3937, 3941, 3945, 3949, 3953, 3957, 3961, 3965
 3969, 3973, 3977, 3981, 3985, 3989, 3993, 3997, 4001, 4005, 4009, 4013, 4017, 4021, 4025, 4029
 4033, 4037, 4041, 4045, 4049, 4053, 4057, 4061, 4065, 4069, 4073, 4077, 4081, 4085, 4089, 4093
 4097, 4101, 4105, 4109, 4113, 4117, 4121, 4125, 4129, 4133, 4137, 4141, 4145, 4149, 4153, 4157
 4161, 4165, 4169, 4173, 4177, 4181, 4185, 4189, 4193, 4197, 4201, 4205, 4209, 4213, 4217, 4221
 5313, 5317, 5321, 5325, 5329, 5333, 5337, 5341, 5345, 5349, 5353, 5357, 5361, 5365, 5369, 5373
 5377, 5381, 5385, 5389, 5393, 5397, 5401, 5405, 5409, 5413, 5417, 5421, 5425, 5429, 5433, 5437
 5441, 5445, 5449, 5453, 5457, 5461, 5465, 5469, 5473, 5477, 5481, 5485, 5489, 5493, 5497, 5501
 5505, 5509, 5513, 5517, 5521, 5525, 5529, 5533, 5537, 5541, 5545, 5549, 5553, 5557, 5561, 5565
 5569, 5573, 5577, 5581, 5585, 5589, 5593, 5597, 5601, 5605, 5609, 5613, 5617, 5621, 5625, 5629
** ... 5 like lines cut
*Nset, nset=Set-3, instance=Cube-1
   49,   50,   51,   52,   53,   54,   55,   56,   57,   58,   59,   60,   61,   62,   63,   64
  697,  698,  699,  700,  701,  702,  703,  704,  705,  706,  707,  708,  709,  710,  711,  712
  713,  714,  715,  716,  717,  718,  719,  720,  721,  722,  723,  724,  737,  738,  739,  740
  741,  742,  743,  744,  745,  746,  747,  748,  749,  750,  751,  752,  753,  754,  755,  756
  757,  758,  759,  760,  761,  762,  763,  764,  774,  775,  776,  777,  778,  779,  780,  781
  782,  789,  790,  791,  792,  793,  794,  795,  796,  797,  798,  799,  800,  801,  802,  803
  804,  805,  806,  807,  808,  809,  810,  814,  815,  816,  817,  818,  819,  820,  821,  822
  829,  830,  831,  832,  833,  834,  835,  836,  837,  838,  839,  840,  841,  842,  846,  847
  848,  849,  850,  851,  852,  853,  854,  855,  856,  857,  858,  859,  863,  864,  865,  866
  867,  868,  875,  876,  877,  878,  879,  880, 3531, 3532, 3533, 3534, 3535, 3536, 3537, 3538
 3539, 3540, 3541, 3542, 3543, 3544, 3545, 3546, 3547, 3548, 3549, 3550, 3551, 3552, 3553, 3554
 3555, 3556, 3557, 3558, 3559, 3560, 3561, 3562, 3563, 3648, 3649, 3650, 3651, 3652, 3653, 3654
 3655, 3656, 3657, 3658, 3659, 3660, 3661, 3662, 3663, 3664, 3665, 3666, 3667, 3668, 3669, 3670
 3671, 3672, 3673, 3674, 3675, 3676, 3677, 3678, 3679, 3680, 3765, 3766, 3767, 3768, 3769, 3770
 3771, 3772, 3773, 3801, 3802, 3803, 3804, 3805, 3806, 3807, 3808, 3809, 3810, 3811, 3812, 3813
 3814, 3815, 3816, 3817, 3818, 3819, 3820, 3821, 3822, 3823, 3824, 3825, 3826, 3827, 3828, 3829
 3830, 3831, 3832, 3833, 3834, 3835, 3836, 3837, 3838, 3839, 3840, 3841, 3842, 3843, 3844, 3845
 3846, 3847, 3848, 3849, 3850, 3851, 3852, 3853, 3854, 3855, 3856, 3857, 3858, 3859, 3860, 3861
 3862, 3863, 3864, 3865, 3866, 3867, 3868, 3869, 3870, 3871, 3872, 3873, 3874, 3875, 3876, 3877
 3878, 3879, 3880, 3881, 3882, 3883, 3884, 3885, 3886, 3887, 3888, 3889, 3890, 3891, 3892, 3893
** ... 8 like lines cut
*Elset, elset=Set-3, instance=Cube-1
 5969, 5970, 5971, 5972, 5973, 5974, 5975, 5976, 5977, 5978, 5979, 5980, 5981, 5982, 5983, 5984
 5985, 5986, 5987, 5988, 5989, 5990, 5991, 5992, 5993, 5994, 5995, 5996, 5997, 5998, 5999, 6000
 6001, 6002, 6003, 6004, 6005, 6006, 6007, 6008, 6009, 6010, 6011, 6012, 6013, 6014, 6015, 6016
 6161, 6162, 6163, 6164, 6165, 6166, 6167, 6168, 6169, 6170, 6171, 6172, 6173, 6174, 6175, 6176
 6177, 6178, 6179, 6180, 6181, 6182, 6183, 6184, 6185, 6186, 6187, 6188, 6189, 6190, 6191, 6192
 6193, 6194, 6195, 6196, 6197, 6198, 6199, 6200, 6201, 6202, 6203, 6204, 6205, 6206, 6207, 6208
 6257, 6258, 6259, 6260, 6261, 6262, 6263, 6264, 6265, 6266, 6267, 6268, 6269, 6270, 6271, 6272
 6705, 6706, 6707, 6708, 6709, 6710, 6711, 6712, 6713, 6714, 6715, 6716, 6717, 6718, 6719, 6720
 6721, 6722, 6723, 6724, 6725, 6726, 6727, 6728, 6729, 6730, 6731, 6732, 6733, 6734, 6735, 6736
 6737, 6738, 6739, 6740, 6741, 6742, 6743, 6744, 6745, 6746, 6747, 6748, 6749, 6750, 6751, 6752
 6753, 6754, 6755, 6756, 6757, 6758, 6759, 6760, 6761, 6762, 6763, 6764, 6765, 6766, 6767, 6768
 6769, 6770, 6771, 6772, 6773, 6774, 6775, 6776, 6777, 6778, 6779, 6780, 6781, 6782, 6783, 6784
 6785, 6786, 6787, 6788, 6789, 6790, 6791, 6792, 6793, 6794, 6795, 6796, 6797, 6798, 6799, 6800
 6801, 6802, 6803, 6804, 6805, 6806, 6807, 6808, 6809, 6810, 6811, 6812, 6813, 6814, 6815, 6816
 6817, 6818, 6819, 6820, 6821, 6822, 6823, 6824, 6825, 6826, 6827, 6828, 6829, 6830, 6831, 6832
 6833, 6834, 6835, 6836, 6837, 6838, 6839, 6840, 6841, 6842, 6843, 6844, 6845, 6846, 6847, 6848
 6897, 6898, 6899, 6900, 6901, 6902, 6903, 6904, 6905, 6906, 6907, 6908, 6909, 6910, 6911, 6912
 7057, 7058, 7059, 7060, 7061, 7062, 7063, 7064, 7065, 7066, 7067, 7068, 7069, 7070, 7071, 7072
 7073, 7074, 7075, 7076, 7077, 7078, 7079, 7080, 7081, 7082, 7083, 7084, 7085, 7086, 7087, 7088
 7089, 7090, 7091, 7092, 7093, 7094, 7095, 7096, 7097, 7098, 7099, 7100, 7101, 7102, 7103, 7104
** ... 5 like lines cut
*Nset, nset=Set-4, instance=Cube-1
    9,   10,   11,   12,   14,   16,   31,   32,   37,   38,   40,   48,   59,   60,   62,   63
  203,  204,  205,  206,  207,  208,  209,  210,  211,  212,  213,  220,  221,  222,  223,  224
  225,  226,  227,  228,  229,  230,  231,  232,  233,  234,  235,  236,  237,  238,  239,  240
  241,  242,  243,  244,  245,  246,  247,  248,  249,  250,  251,  252,  256,  257,  258,  265
  266,  267,  271,  272,  273,  274,  275,  276,  277,  278,  279,  280,  281,  468,  469,  470
  474,  475,  476,  480,  481,  482,  483,  484,  485,  486,  487,  488,  489,  490,  553,  554
  555,  556,  557,  558,  559,  560,  561,  562,  563,  564,  565,  566,  567,  568,  569,  573
  574,  575,  579,  580,  581,  655,  656,  657,  661,  662,  663,  814,  815,  816,  823,  824
  825,  826,  827,  828,  849,  850,  851,  852,  853,  854,  855,  856,  857,  858,  859,  860
  861,  862,  866,  867,  868,  869,  870,  871, 1673, 1674, 1675, 1676, 1677, 1678, 1679, 1680
 1681, 1682, 1683, 1684, 1685, 1686, 1687, 1688, 1689, 1690, 1691, 1692, 1693, 1694, 1695, 1696
 1697, 1698, 1699, 1700, 1701, 1702, 1703, 1704, 1705, 1706, 1707, 1708, 1709, 1710, 1711, 1712
 1713, 1714, 1715, 1716, 1717, 1718, 1719, 1720, 1721, 1722, 1723, 1724, 1725, 1726, 1727, 1728
 1729, 1730, 1731, 1732, 1733, 1734, 1735, 1736, 1737, 1738, 1739, 1740, 1741, 1742, 1743, 1744
 1745, 1746, 1747, 1748, 1749, 1750, 1751, 1752, 1753, 1754, 1755, 1756, 1757, 1758, 1759, 1760
 1761, 1762, 1763, 1764, 1765, 1766, 1767, 1768, 1769, 1770, 1771, 1772, 1773, 1774, 1775, 1776
 1777, 1778, 1779, 1780, 1781, 1782, 1783, 1784, 1785, 1786, 1787, 1788, 1789, 1790, 1791, 1792
 1793, 1944, 1945, 1946, 1947, 1948, 1949, 1950, 1951, 1952, 1953, 1954, 1955, 1956, 1957, 1958
 1959, 1960, 1961, 1962, 1963, 1964, 1965, 1966, 1967, 1968, 1969, 1970, 1971, 1972, 1973, 1974
 1975, 1976, 2735, 2736, 2737, 2738, 2739, 2740, 2741, 2742, 2743, 2744, 2745, 2746, 2747, 2748
** ... 8 like lines cut
*Elset, elset=Set-4, instance=Cube-1
 1729, 1733, 1737, 1741, 1745, 1749, 1753, 1757, 1761, 1765, 1769, 1773, 1777, 1781, 1785, 1789
 1793, 1797, 1801, 1805, 1809, 1813, 1817, 1821, 1825, 1829, 1833, 1837, 1841, 1845, 1849, 1853
 1857, 1861, 1865, 1869, 1873, 1877, 1881, 1885, 1889, 1893, 1897, 1901, 1905, 1909, 1913, 1917
 1921, 1925, 1929, 1933, 1937, 1941, 1945, 1949, 1953, 1957, 1961, 1965, 1969, 1973, 1977, 1981
 1985, 1989, 1993, 1997, 2001, 2005, 2009, 2013, 2017, 2021, 2025, 2029, 2033, 2037, 2041, 2045
 2049, 2053, 2057, 2061, 2065, 2069, 2073, 2077, 2081, 2085, 2089, 2093, 2097, 2101, 2105, 2109
 2113, 2117, 2121, 2125, 2129, 2133, 2137, 2141, 2145, 2149, 2153, 2157, 2161, 2165, 2169, 2173
 2177, 2181, 2185, 2189, 2193, 2197, 2201, 2205, 2209, 2213, 2217, 2221, 2225, 2229, 2233, 2237
 2241, 2245, 2249, 2253, 2257, 2261, 2265, 2269, 2273, 2277, 2281, 2285, 2289, 2293, 2297, 2301
 2317, 2318, 2319, 2320, 2333, 2334, 2335, 2336, 2349, 2350, 2351, 2352, 2365, 2366, 2367, 2368
 2381, 2382, 2383, 2384, 2397, 2398, 2399, 2400, 2413, 2414, 2415, 2416, 2429, 2430, 2431, 2432
 2445, 2446, 2447, 2448, 2461, 2462, 2463, 2464, 2477, 2478, 2479, 2480, 2493, 2494, 2495, 2496
 4033, 4034, 4035, 4036, 4049, 4050, 4051, 4052, 4065, 4066, 4067, 4068, 4081, 4082, 4083, 4084
 4097, 4098, 4099, 4100, 4113, 4114, 4115, 4116, 4129, 4130, 4131, 4132, 4145, 4146, 4147, 4148
 4161, 4162, 4163, 4164, 4177, 4178, 4179, 4180, 4193, 4194, 4195, 4196, 4209, 4210, 4211, 4212
 4801, 4805, 4809, 4813, 4817, 4821, 4825, 4829, 4833, 4837, 4841, 4845, 4849, 4853, 4857, 4861
 4865, 4869, 4873, 4877, 4881, 4885, 4889, 4893, 4897, 4901, 4905, 4909, 4913, 4917, 4921, 4925
 4929, 4933, 4937, 4941, 4945, 4949, 4953, 4957, 4961, 4965, 4969, 4973, 4977, 4981, 4985, 4989
 5005, 5006, 5007, 5008, 5021, 5022, 5023, 5024, 5037, 5038, 5039, 5040, 5053, 5054, 5055, 5056
 5569, 5570, 5571, 5572, 5585, 5586, 5587, 5588, 5601, 5602, 5603, 5604, 5617, 5618, 5619, 5620
** ... 5 like lines cut
*End Assembly
*Amplitude, name=Amp-1, time=TOTAL TIME
             0.,              0.,             20.,             -3.
*Amplitude, name=Amp-2, time=TOTAL TIME, definition=SMOOTH STEP
             0.,              0.,             20.,              3.
** 
** MATERIALS
** 
*Material, name=Channel
*Density
 1e-21,
*Depvar
    800,
*User Material, constants=79
 0.995114,  0.0959854,  0.0231094,   0.096011,    0.99538,         0.,  0.0230026, 0.00221876
   0.999733,    0.00501,    0.00501,    0.00501,    0.00501,    0.00501,    0.00501,    0.00501
    0.00501,    0.00501,    0.00501,    0.00501,    0.00501,    0.00501,    0.00501,    0.00501
    0.00501,    0.00501,    0.00501,    296000.,    296000.,    296000.,    127000.,    127000.
    127000.,    199000.,    199000.,         0.,         0.,         0.,    199000.,         0.
         0.,         0.,         0.,         0.,         0.,         0.,         0.,         0.
         0.,     0.0528,       126.,       6.68,       7.79,    0.00083,   1.56e-07,    0.00418
         0.,         0.,   1.56e-07,        0.3,        0.5,        0.2,      0.301,         0.
         0.,   4.14e-09,     0.0702,        0.5,   0.000249,       4.02,       1.98,        10.
         0.,        0.3,         1.,    296000.,    199000.,    127000.,    0.00501
*Material, name=Channel2
*Density
 1e-21,
*Depvar
    800,
*User Material, constants=79
1.,       0.,       0.,       0.,       1.,       0.,       0.,       0.
       1.,  0.00501,  0.00501,  0.00501,  0.00501,  0.00501,  0.00501,  0.00501
  0.00501,  0.00501,  0.00501,  0.00501,  0.00501,  0.00501,  0.00501,  0.00501
  0.00501,  0.00501,  0.00501,  296000.,  296000.,  296000.,  127000.,  127000.
  127000.,  199000.,  199000.,       0.,       0.,       0.,  199000.,       0.
       0.,       0.,       0.,       0.,       0.,       0.,       0.,       0.
       0.,   0.0528,     126.,     6.68,     7.79,  0.00083, 1.56e-07,  0.00418
       0.,       0., 1.56e-07,      0.3,      0.5,      0.2,    0.301,       0.
       0., 4.14e-09,   0.0702,      0.5, 0.000249,     4.02,     1.98,      10.
       0.,      0.3,       1.,  296000.,  199000.,  127000.,  0.00501
*Material, name=Percipitate
*Density
 1e-21,
*Depvar
    800,
*User Material, constants=79
 0.995114,  0.0959854,  0.0231094,   0.096011,    0.99538,         0.,  0.0230026, 0.00221876
   0.999733,    0.00501,    0.00501,    0.00501,    0.00501,    0.00501,    0.00501,    0.00501
    0.00501,    0.00501,    0.00501,    0.00501,    0.00501,    0.00501,    0.00501,    0.00501
    0.00501,    0.00501,    0.00501,    296000.,    296000.,    296000.,    127000.,    127000.
    127000.,    199000.,    199000.,         0.,         0.,         0.,    199000.,         0.
         0.,         0.,         0.,         0.,         0.,         0.,         0.,         0.
         0.,     0.0528,       126.,       6.68,       7.79,    0.00083,   1.56e-07,    0.00418
       1.56,       330.,   1.56e-07,        0.3,        0.5,        0.2,      0.301,     0.0596
      5000.,   4.14e-09,     0.0702,        0.5,   0.000249,       4.02,       1.98,        10.
         0.,        0.3,         1.,    296000.,    199000.,    127000.,    0.00501
*Material, name=Percipitate2
*Density
 1e-21,
*Depvar
    800,
*User Material, constants=79
1.,       0.,       0.,       0.,       1.,       0.,       0.,       0.
       1.,  0.00501,  0.00501,  0.00501,  0.00501,  0.00501,  0.00501,  0.00501
  0.00501,  0.00501,  0.00501,  0.00501,  0.00501,  0.00501,  0.00501,  0.00501
  0.00501,  0.00501,  0.00501,  296000.,  296000.,  296000.,  127000.,  127000.
  127000.,  199000.,  199000.,       0.,       0.,       0.,  199000.,       0.
       0.,       0.,       0.,       0.,       0.,       0.,       0.,       0.
       0.,   0.0528,     126.,     6.68,     7.79,  0.00083, 1.56e-07,  0.00418
     1.56,     330., 1.56e-07,      0.3,      0.5,      0.2,    0.301,   0.0596
    5000., 4.14e-09,   0.0702,      0.5, 0.000249,     4.02,     1.98,      10.
       0.,      0.3,       1.,  296000.,  199000.,  127000.,  0.00501
** ----------------------------------------------------------------
** 
** STEP: Step-1
** 
*Step, name=Step-1, nlgeom=YES, inc=10000
*Static
0.01, 10., 1e-07, 0.1
** 
** BOUNDARY CONDITIONS
** 
** Name: BC-1 Type: Displacement/Rotation
*Boundary
Set-1, 1, 1
** Name: BC-2 Type: Displacement/Rotation
*Boundary
Set-2, 2, 2
** Name: BC-3 Type: Displacement/Rotation
*Boundary
Set-3, 3, 3
** Name: BC-4 Type: Displacement/Rotation
*Boundary, amplitude=Amp-2
Set-4, 1, 1, -1.
** 
** OUTPUT REQUESTS
** 
*Restart, write, overlay, frequency=10
** 
** FIELD OUTPUT: F-Output-1
** 
*Output, field
*Node Output
CF, RF, U
*Element Output, directions=YES
LE, PE, PEEQ, PEMAG, S, SDV
*Contact Output
CDISP, CSTRESS
** 
** HISTORY OUTPUT: H-Output-1
** 
*Output, history, variable=PRESELECT
*End Step
