*Heading
** Job name: Job-6 Model name: MultiNode
** Generated by: Abaqus/CAE 6.14-4
*Preprint, echo=NO, model=NO, history=NO, contact=NO
**
** PARTS
**
*Part, name=Part-1
*Node
      1,           0.,          0.5,           1.
      2,           0.,           0.,           1.
      3,          0.5,           0.,           1.
      4,          0.5,          0.5,           1.
      5,           0.,           0.,           0.
      6,          0.5,           0.,           0.
      7,          0.5,          0.5,           0.
      8,           0.,          0.5,           0.
      9,           0.,         -0.5,           0.
     10,          0.5,         -0.5,           0.
     11,          0.5,         -0.5,           1.
     12,           0.,         -0.5,           1.
     13,         -0.5,           0.,           1.
     14,         -0.5,           0.,           0.
     15,         -0.5,         -0.5,           0.
     16,         -0.5,         -0.5,           1.
     17,         -0.5,          0.5,           1.
     18,         -0.5,          0.5,           0.
     19,           0.,  0.400000006,           1.
     20,           0.,  0.300000012,           1.
** ... 1311 like lines cut
*Element, type=C3D8
  1,  68, 300, 756, 228,   1,  19, 196,  34
  2, 300, 301, 757, 756,  19,  20, 197, 196
  3, 301, 302, 758, 757,  20,  21, 198, 197
  4, 302, 303, 759, 758,  21,  22, 199, 198
  5, 303,  86, 264, 759,  22,   2,  23, 199
  6, 228, 756, 760, 229,  34, 196, 200,  33
  7, 756, 757, 761, 760, 196, 197, 201, 200
  8, 757, 758, 762, 761, 197, 198, 202, 201
  9, 758, 759, 763, 762, 198, 199, 203, 202
 10, 759, 264, 265, 763, 199,  23,  24, 203
 11, 229, 760, 764, 230,  33, 200, 204,  32
 12, 760, 761, 765, 764, 200, 201, 205, 204
 13, 761, 762, 766, 765, 201, 202, 206, 205
 14, 762, 763, 767, 766, 202, 203, 207, 206
 15, 763, 265, 266, 767, 203,  24,  25, 207
 16, 230, 764, 768, 231,  32, 204, 208,  31
 17, 764, 765, 769, 768, 204, 205, 209, 208
 18, 765, 766, 770, 769, 205, 206, 210, 209
 19, 766, 767, 771, 770, 206, 207, 211, 210
 20, 767, 266, 267, 771, 207,  25,  26, 211
** ... 980 like lines cut
*Nset, nset=Set-2
    1,    2,    3,    5,    6,    8,    9,   10,   11,   12,   13,   14,   17,   18,   19,   20
   21,   22,   23,   24,   25,   26,   35,   36,   37,   38,   39,   40,   41,   42,   60,   61
   62,   63,   64,   65,   66,   67,   68,   69,   70,   71,   72,   73,   74,   75,   76,   77
   78,   79,   80,   81,   82,   83,   84,   85,   86,   87,   88,   89,   90,   91,   92,   93
   94,   95,   96,   97,   98,   99,  100,  101,  102,  103,  104,  105,  106,  107,  108,  109
  110,  111,  112,  113,  114,  115,  116,  117,  118,  119,  120,  121,  122,  123,  124,  125
  126,  127,  128,  129,  130,  131,  132,  133,  134,  135,  136,  137,  159,  160,  161,  162
  167,  168,  169,  170,  171,  172,  173,  174,  175,  176,  177,  178,  179,  180,  181,  182
  183,  184,  185,  186,  187,  188,  189,  190,  191,  192,  193,  194,  195,  264,  265,  266
  267,  268,  269,  270,  271,  272,  273,  274,  275,  276,  277,  278,  279,  280,  281,  282
  283,  284,  285,  286,  287,  288,  289,  290,  291,  292,  293,  294,  295,  296,  297,  298
  299,  300,  301,  302,  303,  304,  305,  306,  307,  308,  309,  310,  311,  312,  313,  314
  315,  316,  317,  318,  319,  320,  321,  322,  323,  324,  325,  326,  327,  328,  329,  330
  331,  332,  333,  334,  335,  372,  373,  374,  375,  376,  377,  378,  379,  380,  381,  382
  383,  384,  385,  386,  387,  388,  389,  390,  391,  392,  393,  394,  395,  396,  397,  398
  399,  400,  401,  402,  403,  404,  405,  406,  407,  408,  409,  410,  411,  412,  413,  414
  415,  416,  417,  418,  419,  420,  421,  422,  423,  424,  425,  426,  427,  428,  429,  430
  431,  432,  433,  434,  435,  436,  437,  438,  439,  440,  441,  442,  443,  444,  445,  446
  447,  448,  449,  450,  451,  452,  453,  454,  455,  456,  457,  458,  459,  460,  461,  462
  463,  464,  465,  466,  467,  468,  469,  470,  471,  472,  473,  474,  475,  476,  477,  478
** ... 29 like lines cut
*Elset, elset=Set-2
  251,  252,  253,  254,  255,  256,  257,  258,  259,  260,  261,  262,  263,  264,  265,  266
  267,  268,  269,  270,  271,  272,  273,  274,  275,  276,  277,  278,  279,  280,  281,  282
  283,  284,  285,  286,  287,  288,  289,  290,  291,  292,  293,  294,  295,  296,  297,  298
  299,  300,  301,  302,  303,  304,  305,  306,  307,  308,  309,  310,  311,  312,  313,  314
  315,  316,  317,  318,  319,  320,  321,  322,  323,  324,  325,  326,  327,  328,  329,  330
  331,  332,  333,  334,  335,  336,  337,  338,  339,  340,  341,  342,  343,  344,  345,  346
  347,  348,  349,  350,  351,  352,  353,  354,  355,  356,  357,  358,  359,  360,  361,  362
  363,  364,  365,  366,  367,  368,  369,  370,  371,  372,  373,  374,  375,  376,  377,  378
  379,  380,  381,  382,  383,  384,  385,  386,  387,  388,  389,  390,  391,  392,  393,  394
  395,  396,  397,  398,  399,  400,  401,  402,  403,  404,  405,  406,  407,  408,  409,  410
  411,  412,  413,  414,  415,  416,  417,  418,  419,  420,  421,  422,  423,  424,  425,  426
  427,  428,  429,  430,  431,  432,  433,  434,  435,  436,  437,  438,  439,  440,  441,  442
  443,  444,  445,  446,  447,  448,  449,  450,  451,  452,  453,  454,  455,  456,  457,  458
  459,  460,  461,  462,  463,  464,  465,  466,  467,  468,  469,  470,  471,  472,  473,  474
  475,  476,  477,  478,  479,  480,  481,  482,  483,  484,  485,  486,  487,  488,  489,  490
  491,  492,  493,  494,  495,  496,  497,  498,  499,  500,  751,  752,  753,  754,  755,  756
  757,  758,  759,  760,  761,  762,  763,  764,  765,  766,  767,  768,  769,  770,  771,  772
  773,  774,  775,  776,  777,  778,  779,  780,  781,  782,  783,  784,  785,  786,  787,  788
  789,  790,  791,  792,  793,  794,  795,  796,  797,  798,  799,  800,  801,  802,  803,  804
  805,  806,  807,  808,  809,  810,  811,  812,  813,  814,  815,  816,  817,  818,  819,  820
** ... 12 like lines cut
*Nset, nset=Set-3
    1,    2,    3,    4,    5,    6,    7,    8,    9,   12,   13,   14,   15,   16,   19,   20
   21,   22,   23,   24,   25,   26,   27,   28,   29,   30,   31,   32,   33,   34,   35,   36
   37,   38,   39,   40,   41,   42,   43,   44,   45,   46,   47,   48,   49,   50,   51,   52
   53,   54,   55,   56,   57,   58,   59,   60,   61,   62,   63,   64,   65,   66,   67,   68
   69,   70,   71,   72,   73,   74,   75,   76,   77,   78,   79,   80,   81,   82,   83,   84
   85,   86,   87,   88,   89,   90,   99,  100,  101,  102,  120,  121,  122,  123,  124,  125
  126,  127,  128,  129,  130,  131,  132,  133,  134,  135,  136,  137,  138,  139,  140,  141
  142,  143,  144,  145,  146,  147,  148,  149,  150,  151,  152,  153,  154,  155,  156,  157
  158,  159,  160,  161,  162,  163,  164,  165,  166,  167,  168,  169,  170,  196,  197,  198
  199,  200,  201,  202,  203,  204,  205,  206,  207,  208,  209,  210,  211,  212,  213,  214
  215,  216,  217,  218,  219,  220,  221,  222,  223,  224,  225,  226,  227,  228,  229,  230
  231,  232,  233,  234,  235,  236,  237,  238,  239,  240,  241,  242,  243,  244,  245,  246
  247,  248,  249,  250,  251,  252,  253,  254,  255,  256,  257,  258,  259,  260,  261,  262
  263,  264,  265,  266,  267,  268,  269,  270,  271,  272,  273,  274,  275,  276,  277,  278
  279,  280,  281,  282,  283,  284,  285,  286,  287,  288,  289,  290,  291,  292,  293,  294
  295,  296,  297,  298,  299,  300,  301,  302,  303,  304,  305,  306,  307,  308,  309,  310
  311,  312,  313,  314,  315,  316,  317,  318,  319,  320,  321,  322,  323,  324,  325,  326
  327,  328,  329,  330,  331,  332,  333,  334,  335,  336,  337,  338,  339,  340,  341,  342
  343,  344,  345,  346,  347,  348,  349,  350,  351,  352,  353,  354,  355,  356,  357,  358
  359,  360,  361,  362,  363,  364,  365,  366,  367,  368,  369,  370,  371,  440,  441,  442
** ... 29 like lines cut
*Elset, elset=Set-3
   1,   2,   3,   4,   5,   6,   7,   8,   9,  10,  11,  12,  13,  14,  15,  16
  17,  18,  19,  20,  21,  22,  23,  24,  25,  26,  27,  28,  29,  30,  31,  32
  33,  34,  35,  36,  37,  38,  39,  40,  41,  42,  43,  44,  45,  46,  47,  48
  49,  50,  51,  52,  53,  54,  55,  56,  57,  58,  59,  60,  61,  62,  63,  64
  65,  66,  67,  68,  69,  70,  71,  72,  73,  74,  75,  76,  77,  78,  79,  80
  81,  82,  83,  84,  85,  86,  87,  88,  89,  90,  91,  92,  93,  94,  95,  96
  97,  98,  99, 100, 101, 102, 103, 104, 105, 106, 107, 108, 109, 110, 111, 112
 113, 114, 115, 116, 117, 118, 119, 120, 121, 122, 123, 124, 125, 126, 127, 128
 129, 130, 131, 132, 133, 134, 135, 136, 137, 138, 139, 140, 141, 142, 143, 144
 145, 146, 147, 148, 149, 150, 151, 152, 153, 154, 155, 156, 157, 158, 159, 160
 161, 162, 163, 164, 165, 166, 167, 168, 169, 170, 171, 172, 173, 174, 175, 176
 177, 178, 179, 180, 181, 182, 183, 184, 185, 186, 187, 188, 189, 190, 191, 192
 193, 194, 195, 196, 197, 198, 199, 200, 201, 202, 203, 204, 205, 206, 207, 208
 209, 210, 211, 212, 213, 214, 215, 216, 217, 218, 219, 220, 221, 222, 223, 224
 225, 226, 227, 228, 229, 230, 231, 232, 233, 234, 235, 236, 237, 238, 239, 240
 241, 242, 243, 244, 245, 246, 247, 248, 249, 250, 501, 502, 503, 504, 505, 506
 507, 508, 509, 510, 511, 512, 513, 514, 515, 516, 517, 518, 519, 520, 521, 522
 523, 524, 525, 526, 527, 528, 529, 530, 531, 532, 533, 534, 535, 536, 537, 538
 539, 540, 541, 542, 543, 544, 545, 546, 547, 548, 549, 550, 551, 552, 553, 554
 555, 556, 557, 558, 559, 560, 561, 562, 563, 564, 565, 566, 567, 568, 569, 570
** ... 12 like lines cut
** Section: Section-1
*Solid Section, elset=Set-3, material=Material-1
,
** Section: Section-2
*Solid Section, elset=Set-2, material=Material-1
,
*End Part
**  
**
** ASSEMBLY
**
*Assembly, name=Assembly
**  
*Instance, name=Part-1-1, part=Part-1
*End Instance
**  
*Nset, nset=Set-1, instance=Part-1-1
  13,  14,  15,  16,  17,  18, 129, 130, 131, 132, 133, 134, 135, 136, 137, 138
 139, 140, 141, 142, 143, 144, 145, 146, 147, 148, 149, 150, 151, 152, 153, 154
 171, 172, 173, 174, 175, 176, 177, 178, 179, 180, 181, 182, 183, 184, 185, 186
 187, 512, 513, 514, 515, 516, 517, 518, 519, 520, 521, 522, 523, 524, 525, 526
 527, 528, 529, 530, 531, 532, 533, 534, 535, 536, 537, 538, 539, 540, 541, 542
 543, 544, 545, 546, 547, 652, 653, 654, 655, 656, 657, 658, 659, 660, 661, 662
 663, 664, 665, 666, 667, 668, 669, 670, 671, 672, 673, 674, 675, 676, 677, 678
 679, 680, 681, 682, 683, 684, 685, 686, 687
*Elset, elset=Set-1, instance=Part-1-1
 501, 502, 503, 504, 505, 506, 507, 508, 509, 510, 511, 512, 513, 514, 515, 516
 517, 518, 519, 520, 521, 522, 523, 524, 525, 526, 527, 528, 529, 530, 531, 532
 533, 534, 535, 536, 537, 538, 539, 540, 541, 542, 543, 544, 545, 546, 547, 548
 549, 550, 751, 752, 753, 754, 755, 756, 757, 758, 759, 760, 761, 762, 763, 764
 765, 766, 767, 768, 769, 770, 771, 772, 773, 774, 775, 776, 777, 778, 779, 780
 781, 782, 783, 784, 785, 786, 787, 788, 789, 790, 791, 792, 793, 794, 795, 796
 797, 798, 799, 800
*Nset, nset=Set-2, instance=Part-1-1
   9,  10,  11,  12,  15,  16,  95,  96,  97,  98, 107, 108, 109, 110, 111, 112
 113, 114, 115, 116, 117, 118, 119, 120, 121, 122, 123, 124, 125, 126, 127, 128
 142, 143, 144, 145, 146, 147, 148, 149, 150, 155, 156, 157, 158, 163, 164, 165
 166, 404, 405, 406, 407, 408, 409, 410, 411, 412, 413, 414, 415, 416, 417, 418
 419, 420, 421, 422, 423, 424, 425, 426, 427, 428, 429, 430, 431, 432, 433, 434
 435, 436, 437, 438, 439, 616, 617, 618, 619, 620, 621, 622, 623, 624, 625, 626
 627, 628, 629, 630, 631, 632, 633, 634, 635, 636, 637, 638, 639, 640, 641, 642
 643, 644, 645, 646, 647, 648, 649, 650, 651
*Elset, elset=Set-2, instance=Part-1-1
 251, 256, 261, 266, 271, 276, 281, 286, 291, 296, 301, 306, 311, 316, 321, 326
 331, 336, 341, 346, 351, 356, 361, 366, 371, 376, 381, 386, 391, 396, 401, 406
 411, 416, 421, 426, 431, 436, 441, 446, 451, 456, 461, 466, 471, 476, 481, 486
 491, 496, 541, 542, 543, 544, 545, 546, 547, 548, 549, 550, 591, 592, 593, 594
 595, 596, 597, 598, 599, 600, 641, 642, 643, 644, 645, 646, 647, 648, 649, 650
 691, 692, 693, 694, 695, 696, 697, 698, 699, 700, 741, 742, 743, 744, 745, 746
 747, 748, 749, 750
*Nset, nset=Set-3, instance=Part-1-1
   5,   6,   7,   8,   9,  10,  14,  15,  18,  35,  36,  37,  38,  39,  40,  41
  42,  43,  44,  45,  46,  47,  48,  49,  50,  87,  88,  89,  90,  91,  92,  93
  94,  95,  96,  97,  98, 138, 139, 140, 141, 163, 164, 165, 166, 167, 168, 169
 170, 184, 185, 186, 187, 188, 189, 190, 191, 212, 213, 214, 215, 216, 217, 218
 219, 220, 221, 222, 223, 224, 225, 226, 227, 372, 373, 374, 375, 376, 377, 378
 379, 380, 381, 382, 383, 384, 385, 386, 387, 564, 565, 566, 567, 568, 569, 570
 571, 572, 573, 574, 575, 576, 577, 578, 579, 688, 689, 690, 691, 692, 693, 694
 695, 696, 697, 698, 699, 700, 701, 702, 703
*Elset, elset=Set-3, instance=Part-1-1
 226, 227, 228, 229, 230, 231, 232, 233, 234, 235, 236, 237, 238, 239, 240, 241
 242, 243, 244, 245, 246, 247, 248, 249, 250, 251, 252, 253, 254, 255, 256, 257
 258, 259, 260, 261, 262, 263, 264, 265, 266, 267, 268, 269, 270, 271, 272, 273
 274, 275, 510, 520, 530, 540, 550, 560, 570, 580, 590, 600, 610, 620, 630, 640
 650, 660, 670, 680, 690, 700, 710, 720, 730, 740, 750, 751, 761, 771, 781, 791
 801, 811, 821, 831, 841, 851, 861, 871, 881, 891, 901, 911, 921, 931, 941, 951
 961, 971, 981, 991
*Nset, nset=Set-4, instance=Part-1-1
   1,   4,   7,   8,  17,  18,  31,  32,  33,  34,  47,  48,  49,  50,  51,  52
  53,  54,  55,  56,  57,  58,  59,  60,  61,  62,  63,  64,  65,  66,  67,  68
 175, 176, 177, 178, 179, 180, 181, 182, 183, 188, 189, 190, 191, 192, 193, 194
 195, 228, 229, 230, 231, 232, 233, 234, 235, 236, 237, 238, 239, 240, 241, 242
 243, 244, 245, 246, 247, 248, 249, 250, 251, 252, 253, 254, 255, 256, 257, 258
 259, 260, 261, 262, 263, 720, 721, 722, 723, 724, 725, 726, 727, 728, 729, 730
 731, 732, 733, 734, 735, 736, 737, 738, 739, 740, 741, 742, 743, 744, 745, 746
 747, 748, 749, 750, 751, 752, 753, 754, 755
*Elset, elset=Set-4, instance=Part-1-1
    1,    6,   11,   16,   21,   26,   31,   36,   41,   46,   51,   56,   61,   66,   71,   76
   81,   86,   91,   96,  101,  106,  111,  116,  121,  126,  131,  136,  141,  146,  151,  156
  161,  166,  171,  176,  181,  186,  191,  196,  201,  206,  211,  216,  221,  226,  231,  236
  241,  246,  791,  792,  793,  794,  795,  796,  797,  798,  799,  800,  841,  842,  843,  844
  845,  846,  847,  848,  849,  850,  891,  892,  893,  894,  895,  896,  897,  898,  899,  900
  941,  942,  943,  944,  945,  946,  947,  948,  949,  950,  991,  992,  993,  994,  995,  996
  997,  998,  999, 1000
*End Assembly
*Amplitude, name=Amp-1, time=TOTAL TIME
             0.,              0.,              1.,            0.15
** 
** MATERIALS
** 
*Material, name=Material-1
*Density
 1e-12,
*Depvar
    650,
*User Material, constants=79
1.,       0.,       0.,       0.,       1.,       0.,       0.,       0.
       1., 5.01e+09, 5.01e+09, 5.01e+09, 5.01e+09, 5.01e+09, 5.01e+09, 5.01e+09
 5.01e+09, 5.01e+09, 5.01e+09, 5.01e+09, 5.01e+09, 5.01e+09, 5.01e+09, 5.01e+09
 5.01e+09, 5.01e+09, 5.01e+09, 2.96e+11, 2.96e+11, 2.96e+11, 1.27e+11, 1.27e+11
 1.27e+11, 1.99e+11, 1.99e+11,       0.,       0.,       0., 1.99e+11,       0.
       0.,       0.,       0.,       0.,       0.,       0.,       0.,       0.
       0.,   0.0528,     126.,     6.68, 7.79e+06,    3e-09, 1.56e-19, 1.51e-08
     1.56,  3.3e+08, 1.56e-19,      0.3,      0.5,      0.2,    -3.04,   0.0165
    5e+15, 4.14e-21,   0.0702,      0.5, 2.49e-10, 4.02e+06, 1.98e+06,      10.
       0.,      0.3,       1., 2.96e+11, 1.99e+11, 1.27e+11, 5.01e+09
*Material, name=Material-2
*Density
 1e-12,
*Depvar
    650,
*User Material, constants=79
 0.866025,     -0.5,       0.,      0.5, 0.866025,       0.,       0.,       0.
       1., 5.01e+09, 5.01e+09, 5.01e+09, 5.01e+09, 5.01e+09, 5.01e+09, 5.01e+09
 5.01e+09, 5.01e+09, 5.01e+09, 5.01e+09, 5.01e+09, 5.01e+09, 5.01e+09, 5.01e+09
 5.01e+09, 5.01e+09, 5.01e+09, 2.96e+11, 2.96e+11, 2.96e+11, 1.27e+11, 1.27e+11
 1.27e+11, 1.99e+11, 1.99e+11,       0.,       0.,       0., 1.99e+11,       0.
       0.,       0.,       0.,       0.,       0.,       0.,       0.,       0.
       0.,   0.0528,     126.,     6.68, 7.79e+06,    3e-09, 1.56e-19, 1.51e-08
     1.56,  3.3e+08, 1.56e-19,      0.3,      0.5,      0.2,    -3.04,   0.0165
    5e+15, 4.14e-21,   0.0702,      0.5, 2.49e-10, 4.02e+06, 1.98e+06,      10.
       0.,      0.3,       1., 2.96e+11, 1.99e+11, 1.27e+11, 5.01e+09
*Material, name=Material-3
*Density
 1e-12,
*Depvar
    650,
*User Material, constants=79
 0.0,     1.0,       0.,      -1.0, 0.0,       0.,       0.,       0.
       1., 5.01e+09, 5.01e+09, 5.01e+09, 5.01e+09, 5.01e+09, 5.01e+09, 5.01e+09
 5.01e+09, 5.01e+09, 5.01e+09, 5.01e+09, 5.01e+09, 5.01e+09, 5.01e+09, 5.01e+09
 5.01e+09, 5.01e+09, 5.01e+09, 2.96e+11, 2.96e+11, 2.96e+11, 1.27e+11, 1.27e+11
 1.27e+11, 1.99e+11, 1.99e+11,       0.,       0.,       0., 1.99e+11,       0.
       0.,       0.,       0.,       0.,       0.,       0.,       0.,       0.
       0.,   0.0528,     126.,     6.68, 7.79e+06,    3e-09, 1.56e-19, 1.51e-08
     1.56,  3.3e+08, 1.56e-19,      0.3,      0.5,      0.2,    -3.04,   0.0165
    5e+15, 4.14e-21,   0.0702,      0.5, 2.49e-10, 4.02e+06, 1.98e+06,      10.
       0.,      0.3,       1., 2.96e+11, 1.99e+11, 1.27e+11, 5.01e+09	   
** ----------------------------------------------------------------
** 
** STEP: Step-1
** 
*Step, name=Step-1, nlgeom=YES, inc=1000000
*Static
0.0001, 0.6, 1e-08, 0.1
** 
** BOUNDARY CONDITIONS
** 
** Name: BC-1 Type: Symmetry/Antisymmetry/Encastre
*Boundary
Set-2, XSYMM
** Name: BC-2 Type: Symmetry/Antisymmetry/Encastre
*Boundary
Set-2, YSYMM
** Name: BC-3 Type: Symmetry/Antisymmetry/Encastre
*Boundary
Set-2, ZSYMM
** Name: BC-4 Type: Displacement/Rotation
*Boundary, amplitude=Amp-1
Set-4, 2, 2, 1.
** 
** OUTPUT REQUESTS
** 
*Restart, write, frequency=0
** 
** FIELD OUTPUT: F-Output-1
** 
*Output, field
*Node Output
CF, RF, U
*Element Output, directions=YES
LE, PE, PEEQ, PEMAG, S, SDV
*Contact Output
CDISP, CSTRESS
** 
** HISTORY OUTPUT: H-Output-1
** 
*Output, history, variable=PRESELECT
*End Step
