*Heading
** Job name: Cube_R0C Model name: Model-1-Coarse
** Generated by: Abaqus/CAE 2017
*Preprint, echo=NO, model=NO, history=NO, contact=NO
**
** PARTS
**
*Part, name=Cube
*Node
      1,           8.,           2.,           8.
      2,           8.,           8.,           8.
      3,           2.,           8.,           8.
      4,           2.,           2.,           8.
      5,           8.,           2.,           2.
      6,           8.,           8.,           2.
      7,           2.,           8.,           2.
      8,           2.,           2.,           2.
      9,          10.,           8.,           8.
     10,          10.,           2.,           8.
     11,          10.,           8.,           2.
     12,          10.,           2.,           2.
     13,           8.,          10.,           8.
     14,          10.,          10.,           8.
     15,           8.,          10.,           2.
     16,          10.,          10.,           2.
     17,           0.,           8.,           8.
     18,           2.,          10.,           8.
     19,           0.,          10.,           8.
     20,           0.,           8.,           2.
** ... 1311 like lines cut
*Element, type=C3D8
  1,  114,  501,  989,  451,    1,   65,  401,   84
  2,  501,  502,  990,  989,   65,   66,  402,  401
  3,  502,  503,  991,  990,   66,   67,  403,  402
  4,  503,  504,  992,  991,   67,   68,  404,  403
  5,  504,  505,  993,  992,   68,   69,  405,  404
  6,  505,  124,  476,  993,   69,    2,   70,  405
  7,  451,  989,  994,  452,   84,  401,  406,   83
  8,  989,  990,  995,  994,  401,  402,  407,  406
  9,  990,  991,  996,  995,  402,  403,  408,  407
 10,  991,  992,  997,  996,  403,  404,  409,  408
 11,  992,  993,  998,  997,  404,  405,  410,  409
 12,  993,  476,  477,  998,  405,   70,   71,  410
 13,  452,  994,  999,  453,   83,  406,  411,   82
 14,  994,  995, 1000,  999,  406,  407,  412,  411
 15,  995,  996, 1001, 1000,  407,  408,  413,  412
 16,  996,  997, 1002, 1001,  408,  409,  414,  413
 17,  997,  998, 1003, 1002,  409,  410,  415,  414
 18,  998,  477,  478, 1003,  410,   71,   72,  415
 19,  453,  999, 1004,  454,   82,  411,  416,   81
 20,  999, 1000, 1005, 1004,  411,  412,  417,  416
** ... 980 like lines cut
*Nset, nset=Set-1
    1,    2,    3,    4,    5,    6,    7,    8,    9,   10,   11,   12,   13,   14,   15,   16
   17,   18,   19,   20,   21,   22,   23,   24,   25,   26,   27,   28,   29,   30,   31,   32
   33,   34,   35,   36,   37,   38,   39,   40,   41,   42,   43,   44,   45,   46,   47,   48
   49,   50,   51,   52,   53,   54,   55,   56,   57,   58,   59,   60,   61,   62,   63,   64
   65,   66,   67,   68,   69,   70,   71,   72,   73,   74,   75,   76,   77,   78,   79,   80
   81,   82,   83,   84,   85,   86,   87,   88,   89,   90,   91,   92,   93,   94,   95,   96
   97,   98,   99,  100,  101,  102,  103,  104,  105,  106,  107,  108,  109,  110,  111,  112
  113,  114,  115,  116,  117,  118,  119,  120,  121,  122,  123,  124,  125,  126,  127,  128
  129,  130,  131,  132,  133,  134,  135,  136,  137,  138,  139,  140,  141,  142,  143,  144
  145,  146,  147,  148,  149,  150,  151,  152,  153,  154,  155,  156,  157,  158,  159,  160
  161,  162,  163,  164,  165,  166,  167,  168,  169,  170,  171,  172,  173,  174,  175,  176
  177,  178,  179,  180,  181,  182,  183,  184,  185,  186,  187,  188,  189,  190,  191,  192
  193,  194,  195,  196,  197,  198,  199,  200,  201,  202,  203,  204,  205,  206,  207,  208
  209,  210,  211,  212,  213,  214,  215,  216,  217,  218,  219,  220,  221,  222,  223,  224
  225,  226,  227,  228,  229,  230,  231,  232,  233,  234,  235,  236,  237,  238,  239,  240
  241,  242,  243,  244,  245,  246,  247,  248,  249,  250,  251,  252,  253,  254,  255,  256
  257,  258,  259,  260,  261,  262,  263,  264,  265,  266,  267,  268,  269,  270,  271,  272
  273,  274,  275,  276,  277,  278,  279,  280,  281,  282,  283,  284,  285,  286,  287,  288
  289,  290,  291,  292,  293,  294,  295,  296,  297,  298,  299,  300,  301,  302,  303,  304
  305,  306,  307,  308,  309,  310,  311,  312,  313,  314,  315,  316,  317,  318,  319,  320
** ... 46 like lines cut
*Elset, elset=Set-1
  217,  218,  219,  220,  221,  222,  223,  224,  225,  226,  227,  228,  229,  230,  231,  232
  233,  234,  235,  236,  237,  238,  239,  240,  241,  242,  243,  244,  245,  246,  247,  248
  249,  250,  251,  252,  253,  254,  255,  256,  257,  258,  259,  260,  261,  262,  263,  264
  265,  266,  267,  268,  269,  270,  271,  272,  273,  274,  275,  276,  277,  278,  279,  280
  281,  282,  283,  284,  285,  286,  287,  288,  289,  290,  291,  292,  293,  294,  295,  296
  297,  298,  299,  300,  301,  302,  303,  304,  305,  306,  307,  308,  309,  310,  311,  312
  313,  314,  315,  316,  317,  318,  319,  320,  321,  322,  323,  324,  325,  326,  327,  328
  329,  330,  331,  332,  333,  334,  335,  336,  337,  338,  339,  340,  341,  342,  343,  344
  345,  346,  347,  348,  349,  350,  351,  352,  353,  354,  355,  356,  357,  358,  359,  360
  361,  362,  363,  364,  365,  366,  367,  368,  369,  370,  371,  372,  373,  374,  375,  376
  377,  378,  379,  380,  381,  382,  383,  384,  385,  386,  387,  388,  389,  390,  391,  392
  393,  394,  395,  396,  397,  398,  399,  400,  401,  402,  403,  404,  405,  406,  407,  408
  409,  410,  411,  412,  413,  414,  415,  416,  417,  418,  419,  420,  421,  422,  423,  424
  425,  426,  427,  428,  429,  430,  431,  432,  433,  434,  435,  436,  437,  438,  439,  440
  441,  442,  443,  444,  445,  446,  447,  448,  449,  450,  451,  452,  453,  454,  455,  456
  457,  458,  459,  460,  461,  462,  463,  464,  465,  466,  467,  468,  469,  470,  471,  472
  473,  474,  475,  476,  477,  478,  479,  480,  481,  482,  483,  484,  485,  486,  487,  488
  489,  490,  491,  492,  493,  494,  495,  496,  497,  498,  499,  500,  501,  502,  503,  504
  505,  506,  507,  508,  509,  510,  511,  512,  513,  514,  515,  516,  517,  518,  519,  520
  521,  522,  523,  524,  525,  526,  527,  528,  601,  602,  603,  604,  605,  606,  607,  608
** ... 20 like lines cut
*Nset, nset=Set-2
    1,    2,    3,    4,    5,    6,    7,    8,   33,   34,   35,   36,   51,   52,   55,   58
   65,   66,   67,   68,   69,   70,   71,   72,   73,   74,   75,   76,   77,   78,   79,   80
   81,   82,   83,   84,   85,   86,   87,   88,   89,   90,   91,   92,   93,   94,   95,   96
   97,   98,   99,  100,  101,  102,  103,  104,  247,  248,  249,  250,  251,  252,  253,  254
  255,  256,  257,  258,  259,  260,  261,  262,  263,  264,  265,  266,  267,  268,  269,  270
  336,  337,  338,  339,  340,  341,  342,  345,  346,  347,  348,  349,  358,  365,  366,  367
  368,  369,  370,  371,  372,  373,  374,  375,  401,  402,  403,  404,  405,  406,  407,  408
  409,  410,  411,  412,  413,  414,  415,  416,  417,  418,  419,  420,  421,  422,  423,  424
  425,  426,  427,  428,  429,  430,  431,  432,  433,  434,  435,  436,  437,  438,  439,  440
  441,  442,  443,  444,  445,  446,  447,  448,  449,  450,  744,  745,  746,  747,  748,  749
  750,  751,  752,  753,  754,  755,  756,  757,  758,  759,  760,  761,  762,  763,  764,  765
  766,  767,  768,  769,  770,  771,  772,  773,  774,  775,  776,  777,  778,  779,  780,  781
  782,  783,  784,  785,  786,  787,  788,  864,  865,  866,  867,  868,  883,  884,  885,  886
  887,  897,  898,  899,  900,  901,  902,  903,  904,  905,  906,  907,  908,  909,  910,  911
  912,  913,  914,  915,  916,  917,  918,  919,  920,  921,  922,  923,  924,  925,  926,  927
  928,  929,  930,  931, 1209, 1210, 1211, 1212, 1213, 1214, 1215, 1216, 1217, 1218, 1219, 1220
 1221, 1222, 1223, 1224, 1225, 1226, 1227, 1228, 1229, 1230, 1231, 1232, 1233, 1269, 1270, 1271
 1272, 1273, 1274, 1275, 1276, 1277, 1278, 1279, 1280, 1281, 1282, 1283, 1284, 1285, 1286, 1287
 1288, 1289, 1290, 1291, 1292, 1293
*Elset, elset=Set-2
 529, 530, 531, 532, 533, 534, 535, 536, 537, 538, 539, 540, 541, 542, 543, 544
 545, 546, 547, 548, 549, 550, 551, 552, 553, 554, 555, 556, 557, 558, 559, 560
 561, 562, 563, 564, 565, 566, 567, 568, 569, 570, 571, 572, 573, 574, 575, 576
 577, 578, 579, 580, 581, 582, 583, 584, 585, 586, 587, 588, 589, 590, 591, 592
 593, 594, 595, 596, 597, 598, 599, 600, 785, 786, 787, 788, 789, 790, 791, 792
 793, 794, 795, 796, 797, 798, 799, 800, 801, 802, 803, 804, 805, 806, 807, 808
 809, 810, 811, 812, 813, 814, 815, 816, 817, 818, 819, 820, 821, 822, 823, 824
 825, 826, 827, 828, 829, 830, 831, 832, 833, 834, 835, 836, 837, 838, 839, 840
 841, 842, 843, 844, 845, 846, 847, 848, 849, 850, 851, 852, 853, 854, 855, 856
*Nset, nset=Set-3
    1,    2,    3,    4,    5,    6,    7,    8,   65,   66,   67,   68,   69,   70,   71,   72
   73,   74,   75,   76,   77,   78,   79,   80,   81,   82,   83,   84,   85,   86,   87,   88
   89,   90,   91,   92,   93,   94,   95,   96,   97,   98,   99,  100,  101,  102,  103,  104
  105,  106,  107,  108,  109,  110,  111,  112,  113,  114,  115,  116,  117,  118,  119,  120
  121,  122,  123,  124,  401,  402,  403,  404,  405,  406,  407,  408,  409,  410,  411,  412
  413,  414,  415,  416,  417,  418,  419,  420,  421,  422,  423,  424,  425,  426,  427,  428
  429,  430,  431,  432,  433,  434,  435,  436,  437,  438,  439,  440,  441,  442,  443,  444
  445,  446,  447,  448,  449,  450,  451,  452,  453,  454,  455,  456,  457,  458,  459,  460
  461,  462,  463,  464,  465,  466,  467,  468,  469,  470,  471,  472,  473,  474,  475,  476
  477,  478,  479,  480,  481,  482,  483,  484,  485,  486,  487,  488,  489,  490,  491,  492
  493,  494,  495,  496,  497,  498,  499,  500,  501,  502,  503,  504,  505,  506,  507,  508
  509,  510,  511,  512,  513,  514,  515,  516,  517,  518,  519,  520,  521,  522,  523,  524
  525,  526,  527,  528,  529,  530,  531,  532,  533,  534,  535,  536,  537,  538,  539,  540
  541,  542,  543,  544,  545,  546,  547,  548,  549,  550,  989,  990,  991,  992,  993,  994
  995,  996,  997,  998,  999, 1000, 1001, 1002, 1003, 1004, 1005, 1006, 1007, 1008, 1009, 1010
 1011, 1012, 1013, 1014, 1015, 1016, 1017, 1018, 1019, 1020, 1021, 1022, 1023, 1024, 1025, 1026
 1027, 1028, 1029, 1030, 1031, 1032, 1033, 1034, 1035, 1036, 1037, 1038, 1039, 1040, 1041, 1042
 1043, 1044, 1045, 1046, 1047, 1048, 1049, 1050, 1051, 1052, 1053, 1054, 1055, 1056, 1057, 1058
 1059, 1060, 1061, 1062, 1063, 1064, 1065, 1066, 1067, 1068, 1069, 1070, 1071, 1072, 1073, 1074
 1075, 1076, 1077, 1078, 1079, 1080, 1081, 1082, 1083, 1084, 1085, 1086, 1087, 1088, 1089, 1090
 1091, 1092, 1093, 1094, 1095, 1096, 1097, 1098, 1099, 1100, 1101, 1102, 1103, 1104, 1105, 1106
 1107, 1108, 1109, 1110, 1111, 1112, 1113
*Elset, elset=Set-3, generate
   1,  216,    1
*Nset, nset=Set-4
    1,    2,    3,    4,    5,    6,    7,    8,    9,   10,   11,   12,   13,   14,   15,   16
   17,   18,   19,   20,   21,   22,   23,   24,   25,   26,   27,   28,   29,   30,   31,   32
   33,   34,   35,   36,   37,   38,   39,   40,   41,   42,   43,   44,   45,   46,   47,   48
   49,   50,   51,   52,   53,   54,   55,   56,   57,   58,   59,   60,   61,   62,   63,   64
   65,   66,   67,   68,   69,   70,   71,   72,   73,   74,   75,   76,   77,   78,   79,   80
   81,   82,   83,   84,   85,   86,   87,   88,   89,   90,   91,   92,   93,   94,   95,   96
   97,   98,   99,  100,  101,  102,  103,  104,  105,  106,  107,  108,  109,  110,  111,  112
  113,  114,  115,  116,  117,  118,  119,  120,  121,  122,  123,  124,  125,  126,  127,  128
  129,  130,  131,  132,  133,  134,  135,  136,  137,  138,  139,  140,  141,  142,  143,  144
  145,  146,  147,  148,  149,  150,  151,  152,  153,  154,  155,  156,  157,  158,  159,  160
  161,  162,  163,  164,  165,  166,  167,  168,  169,  170,  171,  172,  173,  174,  175,  176
  177,  178,  179,  180,  181,  182,  183,  184,  185,  186,  187,  188,  189,  190,  191,  192
  193,  194,  195,  196,  197,  198,  199,  200,  201,  202,  203,  204,  205,  206,  207,  208
  209,  210,  211,  212,  213,  214,  215,  216,  217,  218,  219,  220,  221,  222,  223,  224
  225,  226,  227,  228,  229,  230,  231,  232,  233,  234,  235,  236,  237,  238,  239,  240
  241,  242,  243,  244,  245,  246,  247,  248,  249,  250,  251,  252,  253,  254,  255,  256
  257,  258,  259,  260,  261,  262,  263,  264,  265,  266,  267,  268,  269,  270,  271,  272
  273,  274,  275,  276,  277,  278,  279,  280,  281,  282,  283,  284,  285,  286,  287,  288
  289,  290,  291,  292,  293,  294,  295,  296,  297,  298,  299,  300,  301,  302,  303,  304
  305,  306,  307,  308,  309,  310,  311,  312,  313,  314,  315,  316,  317,  318,  319,  320
** ... 56 like lines cut
*Elset, elset=Set-4, generate
  217,  1000,     1
*Nset, nset=Set-6, generate
    1,  1331,     1
*Elset, elset=Set-6, generate
    1,  1000,     1
** Section: Percipittate
*Solid Section, elset=Set-3, material=NewChannel
,
** Section: Channel
*Solid Section, elset=Set-4, material=NewChannel
,
*End Part
**  
**
** ASSEMBLY
**
*Assembly, name=Assembly
**  
*Instance, name=Cube-1, part=Cube
*End Instance
**  
*Nset, nset=Set-1, instance=Cube-1
  17,  19,  20,  22,  23,  24,  26,  28,  41,  43,  44,  46,  53,  54,  56,  64
 168, 172, 173, 174, 175, 176, 177, 178, 179, 180, 181, 182, 189, 190, 191, 192
 193, 195, 196, 197, 198, 199, 200, 201, 202, 203, 204, 206, 209, 211, 212, 213
 214, 215, 288, 289, 290, 293, 294, 295, 296, 297, 298, 300, 302, 351, 352, 353
 354, 355, 357, 359, 360, 364, 398, 400, 615, 616, 617, 618, 619, 645, 646, 647
 648, 649, 650, 651, 652, 653, 654, 655, 656, 657, 658, 659, 660, 661, 662, 663
 664, 665, 666, 667, 668, 669, 687, 688, 689, 690, 691, 806, 815, 816, 817, 818
 819, 824, 888, 889, 890, 891, 892, 895, 987
*Elset, elset=Set-1, instance=Cube-1
  313,  315,  317,  319,  321,  323,  325,  327,  329,  331,  333,  335,  337,  339,  341,  343
  345,  347,  349,  351,  353,  355,  357,  359,  361,  363,  365,  367,  369,  371,  373,  375
  377,  379,  381,  383,  385,  387,  389,  391,  393,  395,  397,  399,  401,  403,  405,  407
  411,  412,  415,  416,  419,  420,  423,  424,  427,  428,  431,  432,  633,  635,  637,  639
  641,  643,  645,  647,  649,  651,  653,  655,  657,  659,  661,  663,  667,  668,  671,  672
  759,  760,  761,  762,  763,  764,  771,  772,  773,  774,  775,  776,  778,  780,  782,  784
  994,  996,  998, 1000
*Nset, nset=Set-2, instance=Cube-1
  25,  26,  27,  28,  29,  30,  31,  32,  45,  46,  47,  48,  56,  57,  61,  63
 207, 210, 211, 212, 213, 214, 215, 216, 217, 218, 219, 220, 222, 223, 224, 225
 226, 228, 229, 230, 231, 232, 233, 234, 235, 236, 237, 239, 241, 242, 243, 244
 245, 246, 301, 302, 303, 305, 306, 307, 308, 309, 310, 312, 313, 361, 363, 364
 381, 382, 383, 384, 385, 387, 395, 397, 677, 678, 679, 680, 681, 702, 703, 704
 705, 706, 707, 708, 709, 710, 711, 712, 713, 714, 715, 716, 717, 718, 719, 720
 721, 722, 723, 724, 725, 726, 734, 735, 736, 737, 738, 822, 830, 831, 832, 833
 834, 837, 896, 942, 943, 944, 945, 946, 960
*Elset, elset=Set-2, instance=Cube-1
 409, 411, 413, 415, 417, 419, 421, 423, 425, 427, 429, 431, 433, 435, 437, 439
 441, 443, 445, 447, 449, 451, 453, 455, 457, 459, 461, 463, 465, 467, 469, 471
 473, 475, 477, 479, 481, 483, 485, 487, 489, 491, 493, 495, 497, 499, 501, 503
 505, 507, 509, 511, 513, 515, 517, 519, 521, 523, 525, 527, 665, 667, 669, 671
 673, 675, 677, 679, 681, 683, 685, 687, 689, 691, 693, 695, 697, 699, 701, 703
 779, 780, 783, 784, 871, 872, 873, 874, 875, 876, 883, 884, 885, 886, 887, 888
 915, 916, 919, 920
*Nset, nset=Set-3, instance=Cube-1
  49,  50,  51,  52,  53,  54,  55,  56,  57,  58,  59,  60,  61,  62,  63,  64
 329, 330, 331, 332, 333, 334, 335, 336, 337, 338, 339, 340, 345, 346, 347, 348
 349, 350, 351, 352, 353, 354, 355, 356, 360, 361, 362, 365, 366, 367, 368, 369
 370, 371, 372, 373, 374, 376, 377, 378, 381, 382, 383, 384, 385, 386, 388, 389
 390, 391, 392, 393, 395, 396, 399, 400, 859, 860, 861, 862, 863, 876, 877, 878
 879, 880, 893, 897, 898, 899, 900, 901, 902, 903, 904, 905, 906, 907, 908, 909
 910, 911, 912, 913, 914, 915, 916, 917, 918, 919, 920, 921, 932, 936, 937, 938
 939, 940, 947, 948, 949, 950, 951, 958, 988
*Elset, elset=Set-3, instance=Cube-1
  741,  742,  743,  744,  745,  746,  747,  748,  749,  750,  751,  752,  765,  766,  767,  768
  769,  770,  771,  772,  773,  774,  775,  776,  781,  782,  783,  784,  821,  822,  823,  824
  825,  826,  827,  828,  829,  830,  831,  832,  833,  834,  835,  836,  837,  838,  839,  840
  841,  842,  843,  844,  845,  846,  847,  848,  849,  850,  851,  852,  853,  854,  855,  856
  861,  862,  863,  864,  877,  878,  879,  880,  881,  882,  883,  884,  885,  886,  887,  888
  901,  902,  903,  904,  905,  906,  907,  908,  909,  910,  911,  912,  917,  918,  919,  920
  995,  996,  999, 1000
*Nset, nset=Set-4, instance=Cube-1
   9,  10,  11,  12,  14,  16,  31,  32,  37,  38,  40,  48,  59,  60,  62,  63
 127, 128, 129, 130, 131, 134, 135, 136, 137, 138, 139, 140, 141, 142, 143, 144
 145, 146, 147, 148, 150, 153, 155, 156, 157, 158, 159, 238, 240, 242, 243, 244
 245, 246, 273, 274, 275, 276, 277, 278, 279, 281, 283, 311, 313, 376, 379, 380
 389, 390, 391, 392, 393, 394, 396, 397, 561, 562, 563, 564, 565, 566, 567, 568
 569, 570, 571, 572, 573, 574, 575, 576, 577, 578, 579, 580, 581, 582, 583, 584
 585, 608, 609, 610, 611, 612, 739, 740, 741, 742, 743, 794, 795, 796, 797, 798
 804, 838, 935, 952, 953, 954, 955, 956, 959
*Elset, elset=Set-4, instance=Cube-1
 217, 219, 221, 223, 225, 227, 229, 231, 233, 235, 237, 239, 241, 243, 245, 247
 249, 251, 253, 255, 257, 259, 261, 263, 265, 267, 269, 271, 273, 275, 277, 279
 281, 283, 285, 287, 291, 292, 295, 296, 299, 300, 303, 304, 307, 308, 311, 312
 505, 506, 509, 510, 513, 514, 517, 518, 521, 522, 525, 526, 601, 603, 605, 607
 609, 611, 613, 615, 617, 619, 621, 623, 627, 628, 631, 632, 697, 698, 701, 702
 857, 858, 861, 862, 890, 892, 894, 896, 898, 900, 902, 904, 906, 908, 910, 912
 913, 915, 917, 919
*End Assembly
*Amplitude, name=Amp-1, time=TOTAL TIME
             0.,              0.,             20.,             -3.
*Amplitude, name=Amp-2, time=TOTAL TIME, definition=SMOOTH STEP
             0.,              0.,             20.,             -3.
** 
** MATERIALS
** 
*Material, name=Channel
*Density
 1e-21,
*Depvar
    800,
*User Material, constants=79
 0.995114,  0.0959854,  0.0231094,   0.096011,    0.99538,         0.,  0.0230026, 0.00221876
   0.999733,    0.00501,    0.00501,    0.00501,    0.00501,    0.00501,    0.00501,    0.00501
    0.00501,    0.00501,    0.00501,    0.00501,    0.00501,    0.00501,    0.00501,    0.00501
    0.00501,    0.00501,    0.00501,    296000.,    296000.,    296000.,    127000.,    127000.
    127000.,    199000.,    199000.,         0.,         0.,         0.,    199000.,         0.
         0.,         0.,         0.,         0.,         0.,         0.,         0.,         0.
         0.,     0.0528,       126.,       6.68,       7.79,    0.00083,   1.56e-07,    0.00418
         0.,         0.,   1.56e-07,        0.3,        0.5,        0.2,      0.301,         0.
         0.,   4.14e-09,     0.0702,        0.5,   0.000249,       4.02,       1.98,        10.
         0.,        0.3,         1.,    296000.,    199000.,    127000.,    0.00501
*Material, name=NewChannel
*Density
 1e-21,
*Depvar
    200,
*User Material, constants=40
1.,         0.,         0.,         0.,         1.,         0.,         0.,         0.
         1.,    296378.,    198565.,    127005.,   0.052811,    126.497,    6.68045,    0.00083
   1.56e-07, 0.00417753,    1.56281,       330.,   1.56e-07,        0.3,        0.5,        0.2
   0.300684,  0.0596046,      5000.,   4.14e-09,    7.2e-06,        0.5,    4.01606,    1.97809
         0.,         0.,         0.,         1.,        10.,   0.000249,         0.,         0.
*Material, name=NewStuff1
*Density
 1e-21,
*Depvar
    200,
*User Material, constants=40
1.,          0.,          0.,          0.,          1.,          0.,          0.,          0.
          1.,     296378.,     198565.,     127005.,    0.052811,     126.497,     6.68045,     0.00083
 1.56031e-07,  0.00417753,     1.56281,        330., 1.56031e-07,         0.3,         0.5,         0.2
    0.300684,   0.0596046,       5000., 4.14195e-09, 7.19854e-06,         0.5,     4.01606,     1.97809
          0.,          0.,          0.,          1.,         10.,    0.000249,          1.,          0.
*Material, name=Percipitate
*Density
 1e-21,
*Depvar
    800,
*User Material, constants=79
 0.995114,  0.0959854,  0.0231094,   0.096011,    0.99538,         0.,  0.0230026, 0.00221876
   0.999733,    0.00501,    0.00501,    0.00501,    0.00501,    0.00501,    0.00501,    0.00501
    0.00501,    0.00501,    0.00501,    0.00501,    0.00501,    0.00501,    0.00501,    0.00501
    0.00501,    0.00501,    0.00501,    296000.,    296000.,    296000.,    127000.,    127000.
    127000.,    199000.,    199000.,         0.,         0.,         0.,    199000.,         0.
         0.,         0.,         0.,         0.,         0.,         0.,         0.,         0.
         0.,     0.0528,       126.,       6.68,       7.79,    0.00083,   1.56e-07,    0.00418
       1.56,       330.,   1.56e-07,        0.3,        0.5,        0.2,      0.301,     0.0596
      5000.,   4.14e-09,     0.0702,        0.5,   0.000249,       4.02,       1.98,        10.
         0.,        0.3,         1.,    296000.,    199000.,    127000.,    0.00501
** ----------------------------------------------------------------
** 
** STEP: Step-1
** 
*Step, name=Step-1, nlgeom=YES, inc=10000
*Static
0.001, 10., 1e-07, 0.001
** 
** BOUNDARY CONDITIONS
** 
** Name: BC-1 Type: Displacement/Rotation
*Boundary
Set-1, 1, 1
** Name: BC-2 Type: Displacement/Rotation
*Boundary
Set-2, 2, 2
** Name: BC-3 Type: Displacement/Rotation
*Boundary
Set-3, 3, 3
** Name: BC-4 Type: Displacement/Rotation
*Boundary
Set-4, 1, 1, -1.
** 
** OUTPUT REQUESTS
** 
*Restart, write, overlay, frequency=10
** 
** FIELD OUTPUT: F-Output-1
** 
*Output, field
*Node Output
CF, RF, U
*Element Output, directions=YES
LE, PE, PEEQ, PEMAG, S, SDV
*Contact Output
CDISP, CSTRESS
** 
** HISTORY OUTPUT: H-Output-1
** 
*Output, history, variable=PRESELECT
*End Step
