*Heading
** Job name: GHOSH_TEST_SCALE Model name: Model-1
** Generated by: Abaqus/CAE 2017
*Preprint, echo=NO, model=NO, history=NO, contact=NO
**
** PARTS
**
*Part, name=Part-1
*Node
      1,           3.,          2.5,          2.5
      2,           3.,           3.,          2.5
      3,           3.,           3.,           3.
      4,           3.,          2.5,           3.
      5,          2.5,          2.5,          2.5
      6,          2.5,           3.,          2.5
      7,          2.5,           3.,           3.
      8,          2.5,          2.5,           3.
      9,           0.,           0.,          2.5
     10,          0.5,           0.,          2.5
     11,          0.5,           0.,           3.
     12,           0.,           0.,           3.
     13,          0.5,          0.5,          2.5
     14,          0.5,          0.5,           3.
     15,           0.,          0.5,           3.
     16,           0.,          0.5,          2.5
     17,           0.,          2.5,          2.5
     18,           0.,           3.,          2.5
     19,           0.,           3.,          0.5
     20,           0.,          2.5,          0.5
** ... 4893 like lines cut
*Element, type=C3D8
 1,   83,  705, 2717,  697,    1,   65,  689,   72
 2,  705,  706, 2718, 2717,   65,   66,  690,  689
 3,  706,   87,  701, 2718,   66,    2,   67,  690
 4,  697, 2717, 2719,  698,   72,  689,  691,   71
 5, 2717, 2718, 2720, 2719,  689,  690,  692,  691
 6, 2718,  701,  702, 2720,  690,   67,   68,  692
 7,  698, 2719,  709,   82,   71,  691,   70,    4
 8, 2719, 2720,  710,  709,  691,  692,   69,   70
 9, 2720,  702,   86,  710,  692,   68,    3,   69
10,   84,  707, 2721,  699,   83,  705, 2717,  697
11,  707,  708, 2722, 2721,  705,  706, 2718, 2717
12,  708,   88,  703, 2722,  706,   87,  701, 2718
13,  699, 2721, 2723,  700,  697, 2717, 2719,  698
14, 2721, 2722, 2724, 2723, 2717, 2718, 2720, 2719
15, 2722,  703,  704, 2724, 2718,  701,  702, 2720
16,  700, 2723,  711,   81,  698, 2719,  709,   82
17, 2723, 2724,  712,  711, 2719, 2720,  710,  709
18, 2724,  704,   85,  712, 2720,  702,   86,  710
19,    5,   73,  693,   80,   84,  707, 2721,  699
20,   73,   74,  694,  693,  707,  708, 2722, 2721
** ... 4076 like lines cut
*Nset, nset=Set-1
    5,   13,   23,   24,   27,   41,   51,   53,  148,  149,  150,  151,  152,  153,  154,  155
  156,  185,  186,  187,  188,  189,  190,  191,  192,  193,  209,  210,  211,  212,  213,  214
  215,  216,  217,  260,  261,  262,  263,  264,  265,  266,  267,  268,  278,  279,  280,  281
  282,  283,  284,  285,  286,  391,  392,  393,  394,  395,  396,  397,  398,  399,  418,  419
  420,  421,  422,  423,  424,  425,  426,  438,  439,  440,  441,  442,  443,  444,  445,  446
  456,  457,  458,  459,  460,  461,  462,  463,  464,  465,  466,  467,  468,  469,  470,  471
  472,  473,  543,  544,  545,  546,  547,  548,  549,  550,  551,  565,  566,  567,  568,  569
  570,  571,  572,  573, 1005, 1006, 1007, 1008, 1009, 1010, 1011, 1012, 1013, 1014, 1015, 1016
 1017, 1018, 1019, 1020, 1021, 1022, 1023, 1024, 1025, 1026, 1027, 1028, 1029, 1030, 1031, 1032
 1033, 1034, 1035, 1036, 1037, 1038, 1039, 1040, 1041, 1042, 1043, 1044, 1045, 1046, 1047, 1048
 1049, 1050, 1051, 1052, 1053, 1054, 1055, 1056, 1057, 1058, 1059, 1060, 1061, 1062, 1063, 1064
 1065, 1066, 1067, 1068, 1069, 1070, 1071, 1072, 1073, 1074, 1075, 1076, 1077, 1078, 1079, 1080
 1081, 1082, 1083, 1084, 1085, 1446, 1447, 1448, 1449, 1450, 1451, 1452, 1453, 1454, 1455, 1456
 1457, 1458, 1459, 1460, 1461, 1462, 1463, 1464, 1465, 1466, 1467, 1468, 1469, 1470, 1471, 1472
 1473, 1474, 1475, 1476, 1477, 1478, 1479, 1480, 1481, 1482, 1483, 1484, 1485, 1486, 1487, 1488
 1489, 1490, 1491, 1492, 1493, 1494, 1495, 1496, 1497, 1498, 1499, 1500, 1501, 1502, 1503, 1504
 1505, 1506, 1507, 1508, 1509, 1510, 1511, 1512, 1513, 1514, 1515, 1516, 1517, 1518, 1519, 1520
 1521, 1522, 1523, 1524, 1525, 1526, 1581, 1582, 1583, 1584, 1585, 1586, 1587, 1588, 1589, 1590
 1591, 1592, 1593, 1594, 1595, 1596, 1597, 1598, 1599, 1600, 1601, 1602, 1603, 1604, 1605, 1606
 1607, 1608, 1609, 1610, 1611, 1612, 1613, 1614, 1615, 1616, 1617, 1618, 1619, 1620, 1621, 1622
** ... 64 like lines cut
*Elset, elset=Set-1, generate
 1693,  2692,     1
*Nset, nset=Set-2
    1,    2,    3,    4,    5,    6,    7,    8,    9,   10,   11,   12,   13,   14,   15,   16
   17,   18,   19,   20,   21,   22,   23,   24,   25,   26,   27,   28,   29,   30,   31,   32
   33,   34,   35,   36,   37,   38,   39,   40,   41,   42,   43,   44,   45,   46,   47,   48
   49,   50,   51,   52,   53,   54,   55,   56,   57,   58,   59,   60,   61,   62,   63,   64
   65,   66,   67,   68,   69,   70,   71,   72,   73,   74,   75,   76,   77,   78,   79,   80
   81,   82,   83,   84,   85,   86,   87,   88,   89,   90,   91,   92,   93,   94,   95,   96
   97,   98,   99,  100,  101,  102,  103,  104,  105,  106,  107,  108,  109,  110,  111,  112
  113,  114,  115,  116,  117,  118,  119,  120,  121,  122,  123,  124,  125,  126,  127,  128
  129,  130,  131,  132,  133,  134,  135,  136,  137,  138,  139,  140,  141,  142,  143,  144
  145,  146,  147,  148,  149,  150,  151,  152,  153,  154,  155,  156,  157,  158,  159,  160
  161,  162,  163,  164,  165,  166,  167,  168,  169,  170,  171,  172,  173,  174,  175,  176
  177,  178,  179,  180,  181,  182,  183,  184,  185,  186,  187,  188,  189,  190,  191,  192
  193,  194,  195,  196,  197,  198,  199,  200,  201,  202,  203,  204,  205,  206,  207,  208
  209,  210,  211,  212,  213,  214,  215,  216,  217,  218,  219,  220,  221,  222,  223,  224
  225,  226,  227,  228,  229,  230,  231,  232,  233,  234,  235,  236,  237,  238,  239,  240
  241,  242,  243,  244,  245,  246,  247,  248,  249,  250,  251,  252,  253,  254,  255,  256
  257,  258,  259,  260,  261,  262,  263,  264,  265,  266,  267,  268,  269,  270,  271,  272
  273,  274,  275,  276,  277,  278,  279,  280,  281,  282,  283,  284,  285,  286,  287,  288
  289,  290,  291,  292,  293,  294,  295,  296,  297,  298,  299,  300,  301,  302,  303,  304
  305,  306,  307,  308,  309,  310,  311,  312,  313,  314,  315,  316,  317,  318,  319,  320
** ... 242 like lines cut
*Elset, elset=Set-2
    1,    2,    3,    4,    5,    6,    7,    8,    9,   10,   11,   12,   13,   14,   15,   16
   17,   18,   19,   20,   21,   22,   23,   24,   25,   26,   27,   28,   29,   30,   31,   32
   33,   34,   35,   36,   37,   38,   39,   40,   41,   42,   43,   44,   45,   46,   47,   48
   49,   50,   51,   52,   53,   54,   55,   56,   57,   58,   59,   60,   61,   62,   63,   64
   65,   66,   67,   68,   69,   70,   71,   72,   73,   74,   75,   76,   77,   78,   79,   80
   81,   82,   83,   84,   85,   86,   87,   88,   89,   90,   91,   92,   93,   94,   95,   96
   97,   98,   99,  100,  101,  102,  103,  104,  105,  106,  107,  108,  109,  110,  111,  112
  113,  114,  115,  116,  117,  118,  119,  120,  121,  122,  123,  124,  125,  126,  127,  128
  129,  130,  131,  132,  133,  134,  135,  136,  137,  138,  139,  140,  141,  142,  143,  144
  145,  146,  147,  148,  149,  150,  151,  152,  153,  154,  155,  156,  157,  158,  159,  160
  161,  162,  163,  164,  165,  166,  167,  168,  169,  170,  171,  172,  173,  174,  175,  176
  177,  178,  179,  180,  181,  182,  183,  184,  185,  186,  187,  188,  189,  190,  191,  192
  193,  194,  195,  196,  197,  198,  199,  200,  201,  202,  203,  204,  205,  206,  207,  208
  209,  210,  211,  212,  213,  214,  215,  216,  217,  218,  219,  220,  221,  222,  223,  224
  225,  226,  227,  228,  229,  230,  231,  232,  233,  234,  235,  236,  237,  238,  239,  240
  241,  242,  243,  244,  245,  246,  247,  248,  249,  250,  251,  252,  253,  254,  255,  256
  257,  258,  259,  260,  261,  262,  263,  264,  265,  266,  267,  268,  269,  270,  271,  272
  273,  274,  275,  276,  277,  278,  279,  280,  281,  282,  283,  284,  285,  286,  287,  288
  289,  290,  291,  292,  293,  294,  295,  296,  297,  298,  299,  300,  301,  302,  303,  304
  305,  306,  307,  308,  309,  310,  311,  312,  313,  314,  315,  316,  317,  318,  319,  320
** ... 174 like lines cut
*Nset, nset=Set-3
    5,   13,   23,   24,   27,   41,   51,   53,  148,  149,  150,  151,  152,  153,  154,  155
  156,  185,  186,  187,  188,  189,  190,  191,  192,  193,  209,  210,  211,  212,  213,  214
  215,  216,  217,  260,  261,  262,  263,  264,  265,  266,  267,  268,  278,  279,  280,  281
  282,  283,  284,  285,  286,  391,  392,  393,  394,  395,  396,  397,  398,  399,  418,  419
  420,  421,  422,  423,  424,  425,  426,  438,  439,  440,  441,  442,  443,  444,  445,  446
  456,  457,  458,  459,  460,  461,  462,  463,  464,  465,  466,  467,  468,  469,  470,  471
  472,  473,  543,  544,  545,  546,  547,  548,  549,  550,  551,  565,  566,  567,  568,  569
  570,  571,  572,  573, 1005, 1006, 1007, 1008, 1009, 1010, 1011, 1012, 1013, 1014, 1015, 1016
 1017, 1018, 1019, 1020, 1021, 1022, 1023, 1024, 1025, 1026, 1027, 1028, 1029, 1030, 1031, 1032
 1033, 1034, 1035, 1036, 1037, 1038, 1039, 1040, 1041, 1042, 1043, 1044, 1045, 1046, 1047, 1048
 1049, 1050, 1051, 1052, 1053, 1054, 1055, 1056, 1057, 1058, 1059, 1060, 1061, 1062, 1063, 1064
 1065, 1066, 1067, 1068, 1069, 1070, 1071, 1072, 1073, 1074, 1075, 1076, 1077, 1078, 1079, 1080
 1081, 1082, 1083, 1084, 1085, 1446, 1447, 1448, 1449, 1450, 1451, 1452, 1453, 1454, 1455, 1456
 1457, 1458, 1459, 1460, 1461, 1462, 1463, 1464, 1465, 1466, 1467, 1468, 1469, 1470, 1471, 1472
 1473, 1474, 1475, 1476, 1477, 1478, 1479, 1480, 1481, 1482, 1483, 1484, 1485, 1486, 1487, 1488
 1489, 1490, 1491, 1492, 1493, 1494, 1495, 1496, 1497, 1498, 1499, 1500, 1501, 1502, 1503, 1504
 1505, 1506, 1507, 1508, 1509, 1510, 1511, 1512, 1513, 1514, 1515, 1516, 1517, 1518, 1519, 1520
 1521, 1522, 1523, 1524, 1525, 1526, 1581, 1582, 1583, 1584, 1585, 1586, 1587, 1588, 1589, 1590
 1591, 1592, 1593, 1594, 1595, 1596, 1597, 1598, 1599, 1600, 1601, 1602, 1603, 1604, 1605, 1606
 1607, 1608, 1609, 1610, 1611, 1612, 1613, 1614, 1615, 1616, 1617, 1618, 1619, 1620, 1621, 1622
** ... 64 like lines cut
*Elset, elset=Set-3, generate
 1693,  2692,     1
*Nset, nset=Set-4
    1,    2,    3,    4,    5,    6,    7,    8,    9,   10,   11,   12,   13,   14,   15,   16
   17,   18,   19,   20,   21,   22,   23,   24,   25,   26,   27,   28,   29,   30,   31,   32
   33,   34,   35,   36,   37,   38,   39,   40,   41,   42,   43,   44,   45,   46,   47,   48
   49,   50,   51,   52,   53,   54,   55,   56,   57,   58,   59,   60,   61,   62,   63,   64
   65,   66,   67,   68,   69,   70,   71,   72,   73,   74,   75,   76,   77,   78,   79,   80
   81,   82,   83,   84,   85,   86,   87,   88,   89,   90,   91,   92,   93,   94,   95,   96
   97,   98,   99,  100,  101,  102,  103,  104,  105,  106,  107,  108,  109,  110,  111,  112
  113,  114,  115,  116,  117,  118,  119,  120,  121,  122,  123,  124,  125,  126,  127,  128
  129,  130,  131,  132,  133,  134,  135,  136,  137,  138,  139,  140,  141,  142,  143,  144
  145,  146,  147,  148,  149,  150,  151,  152,  153,  154,  155,  156,  157,  158,  159,  160
  161,  162,  163,  164,  165,  166,  167,  168,  169,  170,  171,  172,  173,  174,  175,  176
  177,  178,  179,  180,  181,  182,  183,  184,  185,  186,  187,  188,  189,  190,  191,  192
  193,  194,  195,  196,  197,  198,  199,  200,  201,  202,  203,  204,  205,  206,  207,  208
  209,  210,  211,  212,  213,  214,  215,  216,  217,  218,  219,  220,  221,  222,  223,  224
  225,  226,  227,  228,  229,  230,  231,  232,  233,  234,  235,  236,  237,  238,  239,  240
  241,  242,  243,  244,  245,  246,  247,  248,  249,  250,  251,  252,  253,  254,  255,  256
  257,  258,  259,  260,  261,  262,  263,  264,  265,  266,  267,  268,  269,  270,  271,  272
  273,  274,  275,  276,  277,  278,  279,  280,  281,  282,  283,  284,  285,  286,  287,  288
  289,  290,  291,  292,  293,  294,  295,  296,  297,  298,  299,  300,  301,  302,  303,  304
  305,  306,  307,  308,  309,  310,  311,  312,  313,  314,  315,  316,  317,  318,  319,  320
** ... 242 like lines cut
*Elset, elset=Set-4
    1,    2,    3,    4,    5,    6,    7,    8,    9,   10,   11,   12,   13,   14,   15,   16
   17,   18,   19,   20,   21,   22,   23,   24,   25,   26,   27,   28,   29,   30,   31,   32
   33,   34,   35,   36,   37,   38,   39,   40,   41,   42,   43,   44,   45,   46,   47,   48
   49,   50,   51,   52,   53,   54,   55,   56,   57,   58,   59,   60,   61,   62,   63,   64
   65,   66,   67,   68,   69,   70,   71,   72,   73,   74,   75,   76,   77,   78,   79,   80
   81,   82,   83,   84,   85,   86,   87,   88,   89,   90,   91,   92,   93,   94,   95,   96
   97,   98,   99,  100,  101,  102,  103,  104,  105,  106,  107,  108,  109,  110,  111,  112
  113,  114,  115,  116,  117,  118,  119,  120,  121,  122,  123,  124,  125,  126,  127,  128
  129,  130,  131,  132,  133,  134,  135,  136,  137,  138,  139,  140,  141,  142,  143,  144
  145,  146,  147,  148,  149,  150,  151,  152,  153,  154,  155,  156,  157,  158,  159,  160
  161,  162,  163,  164,  165,  166,  167,  168,  169,  170,  171,  172,  173,  174,  175,  176
  177,  178,  179,  180,  181,  182,  183,  184,  185,  186,  187,  188,  189,  190,  191,  192
  193,  194,  195,  196,  197,  198,  199,  200,  201,  202,  203,  204,  205,  206,  207,  208
  209,  210,  211,  212,  213,  214,  215,  216,  217,  218,  219,  220,  221,  222,  223,  224
  225,  226,  227,  228,  229,  230,  231,  232,  233,  234,  235,  236,  237,  238,  239,  240
  241,  242,  243,  244,  245,  246,  247,  248,  249,  250,  251,  252,  253,  254,  255,  256
  257,  258,  259,  260,  261,  262,  263,  264,  265,  266,  267,  268,  269,  270,  271,  272
  273,  274,  275,  276,  277,  278,  279,  280,  281,  282,  283,  284,  285,  286,  287,  288
  289,  290,  291,  292,  293,  294,  295,  296,  297,  298,  299,  300,  301,  302,  303,  304
  305,  306,  307,  308,  309,  310,  311,  312,  313,  314,  315,  316,  317,  318,  319,  320
** ... 174 like lines cut
** Section: Section-2
*Solid Section, elset=Set-4, material=Material-2
,
** Section: Section-1
*Solid Section, elset=Set-3, material=Material-1
,
*End Part
**  
**
** ASSEMBLY
**
*Assembly, name=Assembly
**  
*Instance, name=Part-1-1, part=Part-1
*End Instance
**  
*Nset, nset=Set-2, instance=Part-1-1
    9,   10,   11,   12,   31,   32,   33,   34,   44,   45,   46,   47,   52,   58,   62,   63
   89,   90,   91,   92,   93,   94,   95,   96,  291,  292,  297,  298,  299,  300,  301,  302
  303,  304,  305,  306,  307,  308,  309,  310,  311,  312,  313,  314,  315,  316,  317,  318
  319,  320,  367,  368,  369,  370,  371,  372,  373,  374,  427,  428,  429,  430,  431,  432
  433,  434,  435,  447,  448,  449,  450,  451,  452,  453,  454,  455,  474,  475,  476,  477
  478,  479,  480,  481,  482,  499,  500,  501,  502,  503,  504,  505,  506,  507,  521,  522
  637,  638,  641,  642,  645,  646,  653,  654,  655,  656,  657,  658,  659,  660,  661,  671
  672,  673,  674,  675,  676,  677,  678,  679,  713,  714,  715,  716, 1175, 1176, 1177, 1178
 1187, 1188, 1189, 1190, 1191, 1192, 1193, 1194, 1195, 1196, 1197, 1198, 1199, 1200, 1201, 1202
 1203, 1204, 1323, 1324, 1325, 1326, 1662, 1663, 1664, 1665, 1666, 1667, 1668, 1669, 1670, 1671
 1672, 1673, 1674, 1675, 1676, 1677, 1678, 1679, 1680, 1681, 1682, 1683, 1684, 1685, 1686, 1687
 1688, 1689, 1690, 1691, 1692, 1693, 1694, 1695, 1696, 1697, 1698, 1699, 1700, 1701, 1702, 1703
 1704, 1705, 1706, 1707, 1708, 1709, 1710, 1711, 1712, 1713, 1714, 1715, 1716, 1717, 1718, 1719
 1720, 1721, 1722, 1723, 1724, 1725, 1726, 1727, 1728, 1729, 1730, 1731, 1732, 1733, 1734, 1735
 1736, 1737, 1738, 1739, 1740, 1741, 1742, 1817, 1818, 1819, 1820, 1821, 1822, 1823, 1824, 1825
 1826, 1827, 1828, 1829, 1830, 1831, 1832, 1833, 1834, 2553, 2554, 2555, 2556, 2591, 2592, 2593
 2594, 2595, 2596, 2597, 2598, 2599, 2600, 2601, 2602, 2603, 2604, 2605, 2606, 2607, 2608, 2645
 2646, 2647, 2648, 2649, 2650, 2651, 2652, 2653, 2654, 2655, 2656, 2657, 2658, 2659, 2660, 2661
 2662,
*Elset, elset=Set-2, instance=Part-1-1
   28,   29,   30,   31,   32,   33,   34,   35,   36,  625,  628,  631,  634,  637,  640,  643
  646,  649,  652,  655,  658,  661,  664,  667,  670,  673,  676,  679,  682,  685,  688,  691
  694,  697,  700,  703,  706,  709,  712,  715,  718,  721,  724,  727,  730,  733,  736,  739
  859,  860,  861,  862,  863,  864,  865,  866,  867, 1188, 1191, 1194, 1197, 1200, 1203, 1206
 1209, 1212, 1215, 1218, 1221, 1224, 1227, 1230, 1233, 1236, 1239, 1242, 1245, 1248, 1251, 1254
 1257, 1260, 1263, 1266, 1269, 1272, 1275, 1278, 1281, 1284, 1287, 1290, 1293, 1296, 1299, 1302
 1305, 1308, 1311, 1314, 1317, 1320, 1323, 1326, 1329, 1332, 1335, 1338, 1341, 1344, 1347, 1350
 1353, 1356, 1359, 1362, 1365, 1368, 1371, 1374, 1377, 1380, 1383, 1386, 1389, 1392, 1395, 1398
 1401, 1404, 1407, 1410, 1413, 1416, 1419, 1422, 1425, 1428, 1431, 1434, 1437, 1440, 1443, 1446
 1449, 1452, 1455, 1458, 1461, 1464, 1467, 1470, 1473, 1476, 1479, 1482, 1485, 1515, 1518, 1521
 1524, 1527, 1530, 1533, 1536, 1539, 1542, 1545, 1548, 1551, 1554, 1557, 1560, 1563, 1566, 1569
 1572, 1575, 1578, 1581, 1584, 1587, 1590, 1593, 1596, 1599, 1602, 3685, 3688, 3691, 3694, 3697
 3700, 3703, 3706, 3709, 3757, 3758, 3759, 3760, 3761, 3762, 3763, 3764, 3765, 3766, 3787, 3788
 3789, 3790, 3791, 3792, 3793, 3794, 3795, 3796, 3817, 3818, 3819, 3820, 3821, 3822, 3823, 3824
 3825, 3826, 3917, 3918, 3919, 3920, 3921, 3922, 3923, 3924, 3925, 3926, 3927, 3928, 3929, 3930
 3931, 3932, 3933, 3934, 3935, 3936, 3937, 3938, 3939, 3940, 3941, 3942, 3943, 3944, 3945, 3946
*Nset, nset=Set-3, instance=Part-1-1
    9,   12,   15,   16,   17,   18,   19,   20,   30,   45,   46,   48,   49,   56,   57,   64
   95,   96,  103,  104,  105,  106,  107,  108,  113,  114,  115,  116,  117,  118,  119,  120
  121,  122,  123,  124,  125,  126,  127,  128,  129,  130,  131,  132,  133,  134,  229,  230
  231,  232,  233,  234,  235,  236,  237,  238,  239,  240,  241,  242,  243,  244,  245,  246
  247,  248,  369,  370,  377,  378,  387,  388,  389,  390,  489,  490,  491,  492,  493,  494
  583,  584,  585,  586,  587,  588,  589,  590,  591,  592,  593,  594,  595,  596,  597,  598
  599,  600,  601,  602,  603,  604,  605,  606,  607,  608,  609,  649,  650,  651,  652,  671
  672,  673,  674,  675,  676,  677,  678,  679,  721,  722,  723,  724,  737,  738,  739,  740
  741,  742,  743,  744,  745,  746,  747,  748,  749,  750,  751,  752,  753,  754,  911,  912
  913,  914,  915,  916,  917,  918,  919,  920,  921,  922,  923,  924,  925,  926,  927,  928
 1335, 1336, 1337, 1338, 1765, 1766, 1767, 1768, 2176, 2177, 2178, 2179, 2180, 2181, 2182, 2183
 2184, 2185, 2186, 2187, 2188, 2189, 2190, 2191, 2192, 2193, 2230, 2231, 2232, 2233, 2234, 2235
 2236, 2237, 2238, 2239, 2240, 2241, 2242, 2243, 2244, 2245, 2246, 2247, 2248, 2249, 2250, 2251
 2252, 2253, 2254, 2255, 2256, 2257, 2258, 2259, 2260, 2261, 2262, 2263, 2264, 2265, 2266, 2267
 2268, 2269, 2270, 2271, 2272, 2273, 2274, 2275, 2276, 2277, 2278, 2279, 2280, 2281, 2282, 2283
 2284, 2285, 2286, 2287, 2288, 2289, 2290, 2291, 2292, 2293, 2294, 2295, 2296, 2297, 2298, 2299
 2300, 2301, 2302, 2303, 2304, 2305, 2306, 2307, 2308, 2309, 2310, 2565, 2566, 2567, 2568, 2663
 2664, 2665, 2666, 2667, 2668, 2669, 2670, 2671, 2672, 2673, 2674, 2675, 2676, 2677, 2678, 2679
 2680,
*Elset, elset=Set-3, instance=Part-1-1
   28,   31,   34,   37,   40,   43,   46,   49,   52,   55,   56,   57,   58,   59,   60,   61
   62,   63,   64,   65,   66,   67,   68,   69,   70,   71,   72,   73,   74,   75,   76,   77
   78,   79,   80,   81,   82,   83,   84,  295,  296,  297,  298,  299,  300,  301,  302,  303
  304,  305,  306,  307,  308,  309,  310,  311,  312,  313,  314,  315,  316,  317,  318,  319
  320,  321,  322,  323,  324,  861,  864,  867,  870,  873,  876,  879,  882,  885, 1504, 1505
 1506, 1507, 1508, 1509, 1510, 1511, 1512, 2753, 2754, 2755, 2756, 2757, 2758, 2759, 2760, 2761
 2762, 2763, 2764, 2765, 2766, 2767, 2768, 2769, 2770, 2771, 2772, 2773, 2774, 2775, 2776, 2777
 2778, 2779, 2780, 2781, 2782, 2983, 2984, 2985, 2986, 2987, 2988, 2989, 2990, 2991, 2992, 2993
 2994, 2995, 2996, 2997, 2998, 2999, 3000, 3001, 3002, 3003, 3004, 3005, 3006, 3007, 3008, 3009
 3010, 3011, 3012, 3013, 3014, 3015, 3016, 3017, 3018, 3019, 3020, 3021, 3022, 3023, 3024, 3025
 3026, 3027, 3028, 3029, 3030, 3031, 3032, 3033, 3034, 3035, 3036, 3037, 3038, 3039, 3040, 3041
 3042, 3043, 3044, 3045, 3046, 3047, 3048, 3049, 3050, 3051, 3052, 3053, 3054, 3055, 3056, 3057
 3058, 3059, 3060, 3061, 3062, 3063, 3064, 3065, 3066, 3067, 3068, 3069, 3070, 3071, 3072, 3073
 3074, 3075, 3076, 3077, 3078, 3079, 3080, 3081, 3082, 3710, 3713, 3716, 3719, 3722, 3725, 3728
 3731, 3734, 3919, 3922, 3925, 3928, 3931, 3934, 3937, 3940, 3943, 3946, 3949, 3952, 3955, 3958
 3961, 3964, 3967, 3970, 3973, 3976, 3979, 3982, 3985, 3988, 3991, 3994, 3997, 4000, 4003, 4006
*Nset, nset=Set-4, instance=Part-1-1
   38,   39,   42,   43,   46,   47,   49,   50,   54,   55,   56,   57,   60,   61,   62,   63
  347,  348,  355,  356,  359,  360,  363,  364,  371,  372,  379,  380,  383,  384,  387,  388
  485,  486,  491,  492,  495,  496,  497,  498,  534,  535,  536,  537,  538,  539,  540,  541
  542,  554,  555,  556,  557,  558,  559,  560,  561,  562,  563,  564,  574,  575,  576,  577
  578,  579,  580,  581,  582,  592,  593,  594,  595,  596,  597,  598,  599,  600,  610,  611
  612,  613,  614,  615,  616,  617,  618,  619,  620,  621,  622,  623,  624,  625,  626,  627
  639,  640,  643,  644,  645,  646,  653,  654,  655,  656,  657,  658,  659,  660,  661,  662
  663,  664,  665,  666,  667,  668,  669,  670, 1319, 1320, 1321, 1322, 1343, 1344, 1345, 1346
 1777, 1778, 1779, 1780, 1897, 1898, 1899, 1900, 1901, 1902, 1903, 1904, 1905, 1906, 1907, 1908
 1909, 1910, 1911, 1912, 1913, 1914, 2212, 2213, 2214, 2215, 2216, 2217, 2218, 2219, 2220, 2221
 2222, 2223, 2224, 2225, 2226, 2227, 2228, 2229, 2329, 2330, 2331, 2332, 2333, 2334, 2335, 2336
 2337, 2338, 2339, 2340, 2341, 2342, 2343, 2344, 2345, 2346, 2347, 2348, 2349, 2350, 2351, 2352
 2353, 2354, 2355, 2356, 2357, 2358, 2359, 2360, 2361, 2362, 2363, 2364, 2365, 2366, 2367, 2368
 2369, 2370, 2371, 2372, 2373, 2374, 2375, 2376, 2377, 2378, 2379, 2380, 2381, 2382, 2383, 2384
 2385, 2386, 2387, 2388, 2389, 2390, 2391, 2392, 2393, 2394, 2395, 2396, 2397, 2398, 2399, 2400
 2401, 2402, 2403, 2404, 2405, 2406, 2407, 2408, 2409, 2557, 2558, 2559, 2560, 2573, 2574, 2575
 2576, 2577, 2578, 2579, 2580, 2581, 2582, 2583, 2584, 2585, 2586, 2587, 2588, 2589, 2590, 2609
 2610, 2611, 2612, 2613, 2614, 2615, 2616, 2617, 2618, 2619, 2620, 2621, 2622, 2623, 2624, 2625
 2626,
*Elset, elset=Set-4, instance=Part-1-1
  838,  839,  840,  847,  848,  849,  856,  857,  858,  865,  866,  867,  874,  875,  876,  883
  884,  885, 1492, 1493, 1494, 1501, 1502, 1503, 1510, 1511, 1512, 1623, 1624, 1625, 1626, 1627
 1628, 1629, 1630, 1631, 1632, 1653, 1654, 1655, 1656, 1657, 1658, 1659, 1660, 1661, 1662, 1683
 1684, 1685, 1686, 1687, 1688, 1689, 1690, 1691, 1692, 2713, 2714, 2715, 2716, 2717, 2718, 2719
 2720, 2721, 2722, 2743, 2744, 2745, 2746, 2747, 2748, 2749, 2750, 2751, 2752, 2773, 2774, 2775
 2776, 2777, 2778, 2779, 2780, 2781, 2782, 3083, 3084, 3085, 3086, 3087, 3088, 3089, 3090, 3091
 3092, 3093, 3094, 3095, 3096, 3097, 3098, 3099, 3100, 3101, 3102, 3103, 3104, 3105, 3106, 3107
 3108, 3109, 3110, 3111, 3112, 3113, 3114, 3115, 3116, 3117, 3118, 3119, 3120, 3121, 3122, 3123
 3124, 3125, 3126, 3127, 3128, 3129, 3130, 3131, 3132, 3133, 3134, 3135, 3136, 3137, 3138, 3139
 3140, 3141, 3142, 3143, 3144, 3145, 3146, 3147, 3148, 3149, 3150, 3151, 3152, 3153, 3154, 3155
 3156, 3157, 3158, 3159, 3160, 3161, 3162, 3163, 3164, 3165, 3166, 3167, 3168, 3169, 3170, 3171
 3172, 3173, 3174, 3175, 3176, 3177, 3178, 3179, 3180, 3181, 3182, 3689, 3690, 3691, 3698, 3699
 3700, 3707, 3708, 3709, 3737, 3738, 3739, 3740, 3741, 3742, 3743, 3744, 3745, 3746, 3747, 3748
 3749, 3750, 3751, 3752, 3753, 3754, 3755, 3756, 3757, 3758, 3759, 3760, 3761, 3762, 3763, 3764
 3765, 3766, 3827, 3828, 3829, 3830, 3831, 3832, 3833, 3834, 3835, 3836, 3837, 3838, 3839, 3840
 3841, 3842, 3843, 3844, 3845, 3846, 3847, 3848, 3849, 3850, 3851, 3852, 3853, 3854, 3855, 3856
*Nset, nset=TOPFACE, instance=Part-1-1
    2,    3,    6,    7,   18,   19,   21,   22,   35,   36,   39,   40,   43,   55,   57,   64
   67,   68,   75,   76,   85,   86,   87,   88,  115,  116,  117,  118,  119,  120,  121,  122
  123,  137,  138,  139,  140,  141,  142,  143,  144,  145,  161,  162,  163,  164,  321,  322
  325,  326,  327,  328,  329,  330,  331,  332,  333,  334,  335,  336,  337,  338,  339,  340
  341,  342,  349,  350,  357,  358,  359,  360,  361,  362,  400,  401,  402,  403,  404,  405
  406,  407,  408,  409,  410,  411,  412,  413,  414,  415,  416,  417,  487,  488,  493,  494
  495,  496,  647,  648,  651,  652,  662,  663,  664,  665,  666,  667,  668,  669,  670,  680
  681,  682,  683,  684,  685,  686,  687,  688,  701,  702,  703,  704,  791,  792,  793,  794
  795,  796,  797,  798,  799,  800,  801,  802,  803,  804,  805,  806,  807,  808, 1245, 1246
 1247, 1248, 1249, 1250, 1251, 1252, 1253, 1254, 1255, 1256, 1257, 1258, 1259, 1260, 1261, 1262
 1307, 1308, 1309, 1310, 1365, 1366, 1367, 1368, 1369, 1370, 1371, 1372, 1373, 1374, 1375, 1376
 1377, 1378, 1379, 1380, 1381, 1382, 1383, 1384, 1385, 1386, 1387, 1388, 1389, 1390, 1391, 1392
 1393, 1394, 1395, 1396, 1397, 1398, 1399, 1400, 1401, 1402, 1403, 1404, 1405, 1406, 1407, 1408
 1409, 1410, 1411, 1412, 1413, 1414, 1415, 1416, 1417, 1418, 1419, 1420, 1421, 1422, 1423, 1424
 1425, 1426, 1427, 1428, 1429, 1430, 1431, 1432, 1433, 1434, 1435, 1436, 1437, 1438, 1439, 1440
 1441, 1442, 1443, 1444, 1445, 1769, 1770, 1771, 1772, 2569, 2570, 2571, 2572, 2627, 2628, 2629
 2630, 2631, 2632, 2633, 2634, 2635, 2636, 2637, 2638, 2639, 2640, 2641, 2642, 2643, 2644, 2699
 2700, 2701, 2702, 2703, 2704, 2705, 2706, 2707, 2708, 2709, 2710, 2711, 2712, 2713, 2714, 2715
 2716,
*Elset, elset=TOPFACE, instance=Part-1-1
    3,    6,    9,   12,   15,   18,   21,   24,   27,   57,   60,   63,   66,   69,   72,   75
   78,   81,   84,   87,   90,   93,   96,   99,  102,  105,  108,  111,  114,  117,  120,  123
  126,  129,  132,  135,  138,  141,  144,  744,  747,  750,  753,  756,  759,  762,  765,  768
  771,  774,  777,  780,  783,  786,  789,  792,  795,  798,  801,  804,  807,  810,  813,  816
  819,  822,  825,  828,  831,  832,  835,  838,  841,  844,  847,  850,  853,  856,  886,  889
  892,  895,  898,  901,  904,  907,  910,  913,  916,  919,  922,  925,  928,  931,  934,  937
  940,  943,  946,  949,  952,  955,  958,  961,  964,  967,  970,  973,  976,  979,  982,  985
  988,  991,  994,  997, 1000, 1003, 1006, 1009, 1012, 1015, 1018, 1021, 1024, 1027, 1030, 1033
 1036, 1039, 1042, 1045, 1048, 1051, 1054, 1057, 1060, 1063, 1066, 1069, 1072, 1075, 1078, 1081
 1084, 1087, 1090, 1093, 1096, 1099, 1102, 1105, 1108, 1111, 1114, 1117, 1120, 1123, 1126, 1129
 1132, 1135, 1138, 1141, 1144, 1147, 1150, 1153, 1156, 1159, 1162, 1165, 1168, 1171, 1174, 1177
 1180, 1183, 1486, 1489, 1492, 1495, 1498, 1501, 1504, 1507, 1510, 3716, 3717, 3718, 3725, 3726
 3727, 3734, 3735, 3736, 3847, 3848, 3849, 3850, 3851, 3852, 3853, 3854, 3855, 3856, 3877, 3878
 3879, 3880, 3881, 3882, 3883, 3884, 3885, 3886, 3907, 3908, 3909, 3910, 3911, 3912, 3913, 3914
 3915, 3916, 4007, 4010, 4013, 4016, 4019, 4022, 4025, 4028, 4031, 4034, 4037, 4040, 4043, 4046
 4049, 4052, 4055, 4058, 4061, 4064, 4067, 4070, 4073, 4076, 4079, 4082, 4085, 4088, 4091, 4094
*End Assembly
*Amplitude, name=Amp-1, time=TOTAL TIME
             0.,              0.,             10.,              1.
** 
** MATERIALS
** 
*Material, name=Material-1
*Density
 1e-21,
*Depvar
    650,
*User Material, constants=79
1.,       0.,       0.,       0.,       1.,       0.,       0.,       0.
       1.,  0.00501,  0.00501,  0.00501,  0.00501,  0.00501,  0.00501,  0.00501
  0.00501,  0.00501,  0.00501,  0.00501,  0.00501,  0.00501,  0.00501,  0.00501
  0.00501,  0.00501,  0.00501,  296000.,  296000.,  296000.,  127000.,  127000.
  127000.,  199000.,  199000.,       0.,       0.,       0.,  199000.,       0.
       0.,       0.,       0.,       0.,       0.,       0.,       0.,       0.
       0.,   0.0528,     126.,     6.68,     7.79,    0.003, 1.56e-07,   0.0151
     1.56,     330., 1.56e-07,      0.3,      0.5,      0.2,    -3.04,   0.0165
    5000., 4.14e-09,   0.0702,      0.5, 0.000249,     4.02,     1.98,      10.
       0.,      0.3,       1.,  296000.,  199000.,  127000.,  0.00501
*Material, name=Material-1S
*Density
 1e-21,
*Depvar
    650,
*User Material, constants=79
1.,       0.,       0.,       0.,       1.,       0.,       0.,       0.
       1., 5.01e+09, 5.01e+09, 5.01e+09, 5.01e+09, 5.01e+09, 5.01e+09, 5.01e+09
 5.01e+09, 5.01e+09, 5.01e+09, 5.01e+09, 5.01e+09, 5.01e+09, 5.01e+09, 5.01e+09
 5.01e+09, 5.01e+09, 5.01e+09, 2.96e+11, 2.96e+11, 2.96e+11, 1.27e+11, 1.27e+11
 1.27e+11, 1.99e+11, 1.99e+11,       0.,       0.,       0., 1.99e+11,       0.
       0.,       0.,       0.,       0.,       0.,       0.,       0.,       0.
       0.,   0.0528,     126.,     6.68, 7.79e+06,    3e-09, 1.56e-19, 1.51e-08
     1.56,  3.3e+08, 1.56e-19,      0.3,      0.5,      0.2,    -3.04,   0.0165
    5e+15, 4.14e-21,   0.0702,      0.5, 2.49e-10, 4.02e+06, 1.98e+06,      10.
       0.,      0.3,       1., 2.96e+11, 1.99e+11, 1.27e+11, 5.01e+09
*Material, name=Material-2
*Density
 1e-21,
*Depvar
    650,
*User Material, constants=79
1.,       0.,       0.,       0.,       1.,       0.,       0.,       0.
       1.,  0.00501,  0.00501,  0.00501,  0.00501,  0.00501,  0.00501,  0.00501
  0.00501,  0.00501,  0.00501,  0.00501,  0.00501,  0.00501,  0.00501,  0.00501
  0.00501,  0.00501,  0.00501,  296000.,  296000.,  296000.,  127000.,  127000.
  127000.,  199000.,  199000.,       0.,       0.,       0.,  199000.,       0.
       0.,       0.,       0.,       0.,       0.,       0.,       0.,       0.
       0.,   0.0528,     126.,     6.68,     7.79,    0.003, 1.56e-07,   0.0151
       0.,       0., 1.56e-07,      0.3,      0.5,      0.2,    -3.04,   0.0165
    5000., 4.14e-09,   0.0702,      0.5, 0.000249,     4.02,     1.98,      10.
       0.,      0.3,       1.,  296000.,  199000.,  127000.,  0.00501
*Material, name=Material-2S
*Density
 1e-21,
*Depvar
    650,
*User Material, constants=79
1.,       0.,       0.,       0.,       1.,       0.,       0.,       0.
       1., 5.01e+09, 5.01e+09, 5.01e+09, 5.01e+09, 5.01e+09, 5.01e+09, 5.01e+09
 5.01e+09, 5.01e+09, 5.01e+09, 5.01e+09, 5.01e+09, 5.01e+09, 5.01e+09, 5.01e+09
 5.01e+09, 5.01e+09, 5.01e+09, 2.96e+11, 2.96e+11, 2.96e+11, 1.27e+11, 1.27e+11
 1.27e+11, 1.99e+11, 1.99e+11,       0.,       0.,       0., 1.99e+11,       0.
       0.,       0.,       0.,       0.,       0.,       0.,       0.,       0.
       0.,   0.0528,     126.,     6.68, 7.79e+06,    3e-09, 1.56e-19, 1.51e-08
       0.,       0., 1.56e-19,      0.3,      0.5,      0.2,    -3.04,   0.0165
    5e+15, 4.14e-21,   0.0702,      0.5, 2.49e-10, 4.02e+06, 1.98e+06,      10.
       0.,      0.3,       1., 2.96e+11, 1.99e+11, 1.27e+11, 5.01e+09
** ----------------------------------------------------------------
** 
** STEP: Step-1
** 
*Step, name=Step-1, nlgeom=YES, inc=1000000
*Static
0.001, 10., 1e-08, 0.01
** 
** BOUNDARY CONDITIONS
** 
** Name: BC-1 Type: Symmetry/Antisymmetry/Encastre
*Boundary
Set-2, YSYMM
** Name: BC-2 Type: Symmetry/Antisymmetry/Encastre
*Boundary
Set-3, XSYMM
** Name: BC-3 Type: Symmetry/Antisymmetry/Encastre
*Boundary
Set-4, ZSYMM
** Name: BC-4 Type: Displacement/Rotation
*Boundary, amplitude=Amp-1
TOPFACE, 2, 2, -0.4
** 
** OUTPUT REQUESTS
** 
*Restart, write, frequency=0
** 
** FIELD OUTPUT: F-Output-1
** 
*Output, field, number interval=100, time marks=NO
*Node Output
CF, RF, U
*Element Output, directions=YES
LE, PE, PEEQ, PEMAG, S, SDV
*Contact Output
CDISP, CSTRESS
** 
** HISTORY OUTPUT: H-Output-1
** 
*Output, history, number interval=100, time marks=NO
*Node Output, nset=TOPFACE
RF1, RF2, RF3, U1, U2, U3
*End Step
