*Heading
** Job name: Job-6Q Model name: MultiNodeQuart
** Generated by: Abaqus/CAE 6.14-4
*Preprint, echo=NO, model=NO, history=NO, contact=NO
**
** PARTS
**
*Part, name=Part-1
*Node
      1,           0.,          0.5,           1.
      2,           0.,           0.,           1.
      3,          0.5,           0.,           1.
      4,          0.5,          0.5,           1.
      5,           0.,           0.,           0.
      6,          0.5,           0.,           0.
      7,          0.5,          0.5,           0.
      8,           0.,          0.5,           0.
      9,           0.,         -0.5,           0.
     10,          0.5,         -0.5,           0.
     11,          0.5,         -0.5,           1.
     12,           0.,         -0.5,           1.
     13,         -0.5,           0.,           1.
     14,         -0.5,           0.,           0.
     15,         -0.5,         -0.5,           0.
     16,         -0.5,         -0.5,           1.
     17,         -0.5,          0.5,           1.
     18,         -0.5,          0.5,           0.
     19,           0.,  0.333333343,           1.
     20,           0.,  0.166666672,           1.
** ... 1023 like lines cut
*Element, type=C3D20R
 1,  42, 127, 231, 111,   1,  19, 103,  26, 298, 297, 296, 295, 299, 300, 301,
    302, 304, 303, 305, 306
 2, 127, 128, 232, 231,  19,  20, 104, 103, 309, 308, 307, 297, 310, 311, 312,
    300, 303, 313, 314, 305
 3, 128,  50, 119, 232,  20,   2,  21, 104, 317, 316, 315, 308, 318, 319, 320,
    311, 313, 321, 322, 314
 4, 111, 231, 233, 112,  26, 103, 105,  25, 296, 325, 324, 323, 301, 326, 327,
    328, 306, 305, 329, 330
 5, 231, 232, 234, 233, 103, 104, 106, 105, 307, 332, 331, 325, 312, 333, 334,
    326, 305, 314, 335, 329
 6, 232, 119, 120, 234, 104,  21,  22, 106, 315, 337, 336, 332, 320, 338, 339,
    333, 314, 322, 340, 335
 7, 112, 233, 135,  35,  25, 105,  24,   4, 324, 343, 342, 341, 327, 344, 345,
    346, 330, 329, 347, 348
 8, 233, 234, 136, 135, 105, 106,  23,  24, 331, 350, 349, 343, 334, 351, 352,
    344, 329, 335, 353, 347
 9, 234, 120,  43, 136, 106,  22,   3,  23, 336, 355, 354, 350, 339, 356, 357,
    351, 335, 340, 358, 353
10,  41, 129, 235, 113,  42, 127, 231, 111, 362, 361, 360, 359, 298, 297, 296,
    295, 364, 363, 365, 366
** ... 340 like lines cut
*Nset, nset=Set-2
    1,    2,    3,    5,    6,    8,    9,   10,   11,   12,   13,   14,   17,   18,   19,   20
   21,   22,   27,   28,   29,   30,   39,   40,   41,   42,   43,   44,   45,   46,   47,   48
   49,   50,   51,   52,   53,   54,   55,   56,   57,   58,   59,   60,   61,   62,   63,   64
   65,   66,   67,   68,   69,   70,   71,   72,   73,   74,   85,   86,   89,   90,   91,   92
   93,   94,   95,   96,   97,   98,   99,  100,  101,  102,  119,  120,  121,  122,  123,  124
  125,  126,  127,  128,  129,  130,  131,  132,  133,  134,  143,  144,  145,  146,  147,  148
  149,  150,  151,  152,  153,  154,  155,  156,  157,  158,  159,  160,  161,  162,  163,  164
  165,  166,  167,  168,  169,  170,  171,  172,  173,  174,  191,  192,  193,  194,  195,  196
  197,  198,  207,  208,  209,  210,  211,  212,  213,  214,  215,  216,  217,  218,  219,  220
  221,  222,  223,  224,  225,  226,  227,  228,  229,  230,  247,  248,  249,  250,  251,  252
  253,  254,  255,  256,  257,  258,  259,  260,  261,  262,  279,  280,  281,  282,  283,  284
  285,  286,  287,  288,  289,  290,  291,  292,  293,  294,  298,  299,  303,  304,  309,  310
  313,  316,  317,  318,  319,  321,  322,  337,  338,  340,  355,  356,  358,  362,  363,  364
  369,  370,  373,  374,  375,  376,  386,  387,  397,  398,  402,  403,  404,  409,  410,  413
  414,  415,  416,  426,  427,  437,  438,  442,  443,  444,  449,  450,  453,  454,  455,  456
  466,  467,  477,  478,  482,  483,  484,  489,  490,  493,  494,  495,  496,  506,  507,  517
  518,  519,  520,  521,  522,  523,  524,  525,  526,  527,  528,  529,  530,  531,  532,  533
  534,  535,  536,  537,  538,  539,  540,  541,  542,  543,  544,  545,  546,  547,  548,  549
  550,  551,  552,  553,  554,  555,  556,  557,  558,  559,  560,  561,  562,  563,  564,  565
  566,  567,  568,  569,  570,  571,  572,  573,  574,  575,  576,  577,  578,  579,  580,  581
** ... 20 like lines cut
*Elset, elset=Set-2
  46,  47,  48,  49,  50,  51,  52,  53,  54,  55,  56,  57,  58,  59,  60,  61
  62,  63,  64,  65,  66,  67,  68,  69,  70,  71,  72,  73,  74,  75,  76,  77
  78,  79,  80,  81,  82,  83,  84,  85,  86,  87,  88,  89,  90, 136, 137, 138
 139, 140, 141, 142, 143, 144, 145, 146, 147, 148, 149, 150, 151, 152, 153, 154
 155, 156, 157, 158, 159, 160, 161, 162, 163, 164, 165, 166, 167, 168, 169, 170
 171, 172, 173, 174, 175, 176, 177, 178, 179, 180
*Nset, nset=Set-3
   1,   2,   3,   4,   5,   6,   7,   8,   9,  12,  13,  14,  15,  16,  19,  20
  21,  22,  23,  24,  25,  26,  27,  28,  29,  30,  31,  32,  33,  34,  35,  36
  37,  38,  39,  40,  41,  42,  43,  44,  45,  46,  47,  48,  49,  50,  51,  52
  57,  58,  67,  68,  69,  70,  71,  72,  73,  74,  75,  76,  77,  78,  79,  80
  81,  82,  83,  84,  85,  86,  87,  88,  89,  90, 103, 104, 105, 106, 107, 108
 109, 110, 111, 112, 113, 114, 115, 116, 117, 118, 119, 120, 121, 122, 123, 124
 125, 126, 127, 128, 129, 130, 131, 132, 133, 134, 135, 136, 137, 138, 139, 140
 141, 142, 159, 160, 161, 162, 163, 164, 165, 166, 175, 176, 177, 178, 179, 180
 181, 182, 183, 184, 185, 186, 187, 188, 189, 190, 191, 192, 193, 194, 195, 196
 197, 198, 199, 200, 201, 202, 203, 204, 205, 206, 231, 232, 233, 234, 235, 236
 237, 238, 239, 240, 241, 242, 243, 244, 245, 246, 263, 264, 265, 266, 267, 268
 269, 270, 271, 272, 273, 274, 275, 276, 277, 278, 295, 296, 297, 298, 299, 300
 301, 302, 303, 304, 305, 306, 307, 308, 309, 310, 311, 312, 313, 314, 315, 316
 317, 318, 319, 320, 321, 322, 323, 324, 325, 326, 327, 328, 329, 330, 331, 332
 333, 334, 335, 336, 337, 338, 339, 340, 341, 342, 343, 344, 345, 346, 347, 348
 349, 350, 351, 352, 353, 354, 355, 356, 357, 358, 359, 360, 361, 362, 363, 364
 365, 366, 367, 368, 369, 370, 371, 372, 373, 374, 375, 376, 377, 378, 379, 380
 381, 382, 383, 384, 385, 386, 387, 388, 389, 390, 391, 392, 393, 394, 395, 396
 397, 398, 399, 400, 401, 402, 403, 404, 405, 406, 407, 408, 409, 410, 411, 412
 413, 414, 415, 416, 417, 418, 419, 420, 421, 422, 423, 424, 425, 426, 427, 428
** ... 20 like lines cut
*Elset, elset=Set-3
   1,   2,   3,   4,   5,   6,   7,   8,   9,  10,  11,  12,  13,  14,  15,  16
  17,  18,  19,  20,  21,  22,  23,  24,  25,  26,  27,  28,  29,  30,  31,  32
  33,  34,  35,  36,  37,  38,  39,  40,  41,  42,  43,  44,  45,  91,  92,  93
  94,  95,  96,  97,  98,  99, 100, 101, 102, 103, 104, 105, 106, 107, 108, 109
 110, 111, 112, 113, 114, 115, 116, 117, 118, 119, 120, 121, 122, 123, 124, 125
 126, 127, 128, 129, 130, 131, 132, 133, 134, 135
** Section: Section-1
*Solid Section, elset=Set-3, material=Material-1
,
** Section: Section-2
*Solid Section, elset=Set-2, material=Material-2
,
*End Part
**  
**
** ASSEMBLY
**
*Assembly, name=Assembly
**  
*Instance, name=Part-1-1, part=Part-1
*End Instance
**  
*Nset, nset=Set-1, instance=Part-1-1
  13,  14,  15,  16,  17,  18,  71,  72,  73,  74,  75,  76,  77,  78,  79,  80
  81,  82,  91,  92,  93,  94,  95,  96,  97,  98, 175, 176, 177, 178, 179, 180
 181, 182, 207, 208, 209, 210, 211, 212, 213, 214, 709, 710, 711, 712, 720, 721
 722, 728, 729, 730, 736, 737, 738, 744, 745, 746, 752, 753, 754, 759, 760, 764
 765, 769, 770, 774, 775, 780, 781, 782, 787, 788, 792, 793, 797, 798, 802, 803
 894, 895, 896, 901, 902, 906, 907, 911, 912, 916, 917, 922, 923, 924, 929, 930
 934, 935, 939, 940, 944, 945, 950, 951, 952, 957, 958, 962, 963, 967, 968, 972
 973,
*Elset, elset=Set-1, instance=Part-1-1
  91,  92,  93,  94,  95,  96,  97,  98,  99, 100, 101, 102, 103, 104, 105, 136
 137, 138, 139, 140, 141, 142, 143, 144, 145, 146, 147, 148, 149, 150
*Nset, nset=Set-2, instance=Part-1-1
   9,  10,  11,  12,  15,  16,  55,  56,  61,  62,  63,  64,  65,  66,  67,  68
  69,  70,  77,  78,  79,  80,  83,  84,  87,  88, 151, 152, 153, 154, 155, 156
 157, 158, 199, 200, 201, 202, 203, 204, 205, 206, 519, 526, 528, 530, 543, 548
 550, 558, 563, 565, 573, 578, 580, 588, 592, 597, 601, 606, 611, 613, 621, 625
 630, 634, 639, 644, 646, 654, 658, 663, 667, 672, 677, 679, 687, 691, 696, 700
 778, 781, 783, 784, 785, 788, 789, 790, 793, 794, 795, 798, 799, 800, 803, 804
 851, 853, 854, 855, 857, 858, 860, 861, 863, 864, 866, 885, 886, 887, 888, 889
 890,
*Elset, elset=Set-2, instance=Part-1-1
  46,  49,  52,  55,  58,  61,  64,  67,  70,  73,  76,  79,  82,  85,  88, 101
 102, 103, 104, 105, 116, 117, 118, 119, 120, 131, 132, 133, 134, 135
*Nset, nset=Set-3, instance=Part-1-1
    5,    6,    7,    8,    9,   10,   14,   15,   18,   27,   28,   29,   30,   31,   32,   33
   34,   51,   52,   53,   54,   55,   56,   75,   76,   87,   88,   89,   90,   97,   98,   99
  100,  107,  108,  109,  110,  143,  144,  145,  146,  187,  188,  189,  190,  215,  216,  217
  218,  479,  480,  481,  482,  487,  488,  489,  492,  493,  494,  497,  498,  499,  502,  503
  505,  506,  508,  509,  510,  513,  514,  516,  517,  523,  524,  525,  526,  534,  535,  536
  541,  542,  546,  547,  548,  553,  554,  557,  561,  562,  563,  568,  569,  572,  742,  745
  747,  748,  773,  774,  776,  801,  802,  804,  829,  831,  832,  848,  849,  865,  866,  877
  878,  884,  890,  891,  896,  898,  919,  924,  926,  947,  952,  954,  975,  979,  992,  996
 1009, 1013, 1027, 1033, 1039
*Elset, elset=Set-3, instance=Part-1-1
  37,  38,  39,  40,  41,  42,  43,  44,  45,  46,  47,  48,  49,  50,  51,  52
  53,  54,  95, 100, 105, 110, 115, 120, 125, 130, 135, 136, 141, 146, 151, 156
 161, 166, 171, 176
*Nset, nset=Set-4, instance=Part-1-1
    1,    4,    7,    8,   17,   18,   25,   26,   33,   34,   35,   36,   37,   38,   39,   40
   41,   42,   93,   94,   95,   96,   99,  100,  101,  102,  111,  112,  113,  114,  115,  116
  117,  118,  223,  224,  225,  226,  227,  228,  229,  230,  295,  302,  304,  306,  323,  328
  330,  341,  346,  348,  359,  364,  366,  377,  381,  388,  392,  399,  404,  406,  417,  421
  428,  432,  439,  444,  446,  457,  461,  468,  472,  479,  484,  486,  497,  501,  508,  512
  948,  951,  953,  954,  955,  958,  959,  960,  963,  964,  965,  968,  969,  970,  973,  974
 1010, 1012, 1013, 1014, 1016, 1017, 1019, 1020, 1022, 1023, 1025, 1038, 1039, 1040, 1041, 1042
 1043,
*Elset, elset=Set-4, instance=Part-1-1
   1,   4,   7,  10,  13,  16,  19,  22,  25,  28,  31,  34,  37,  40,  43, 146
 147, 148, 149, 150, 161, 162, 163, 164, 165, 176, 177, 178, 179, 180
*End Assembly
*Amplitude, name=Amp-1, time=TOTAL TIME
             0.,              0.,              1.,            0.15
** 
** MATERIALS
** 
*Material, name=Material-1
*Density
 1e-12,
*Depvar
    500,
*User Material, constants=79
1.,       0.,       0.,       0.,       1.,       0.,       0.,       0.
       1., 5.01e+09, 5.01e+09, 5.01e+09, 5.01e+09, 5.01e+09, 5.01e+09, 5.01e+09
 5.01e+09, 5.01e+09, 5.01e+09, 5.01e+09, 5.01e+09, 5.01e+09, 5.01e+09, 5.01e+09
 5.01e+09, 5.01e+09, 5.01e+09, 2.96e+11, 2.96e+11, 2.96e+11, 1.27e+11, 1.27e+11
 1.27e+11, 1.99e+11, 1.99e+11,       0.,       0.,       0., 1.99e+11,       0.
       0.,       0.,       0.,       0.,       0.,       0.,       0.,       0.
       0.,   0.0528,     126.,     6.68, 7.79e+06,    3e-09, 1.56e-19, 1.51e-08
     1.56,  3.3e+08, 1.56e-19,      0.3,      0.5,      0.2,    -3.04,   0.0165
    5e+15, 4.14e-21,   0.0702,      0.5, 2.49e-10, 4.02e+06, 1.98e+06,      10.
       0.,      0.3,       1., 2.96e+11, 1.99e+11, 1.27e+11, 5.01e+09
*Material, name=Material-2
*Density
 1e-12,
*Depvar
    500,
*User Material, constants=79
 0.866025,     -0.5,       0.,      0.5, 0.866025,       0.,       0.,       0.
       1., 5.01e+09, 5.01e+09, 5.01e+09, 5.01e+09, 5.01e+09, 5.01e+09, 5.01e+09
 5.01e+09, 5.01e+09, 5.01e+09, 5.01e+09, 5.01e+09, 5.01e+09, 5.01e+09, 5.01e+09
 5.01e+09, 5.01e+09, 5.01e+09, 2.96e+11, 2.96e+11, 2.96e+11, 1.27e+11, 1.27e+11
 1.27e+11, 1.99e+11, 1.99e+11,       0.,       0.,       0., 1.99e+11,       0.
       0.,       0.,       0.,       0.,       0.,       0.,       0.,       0.
       0.,   0.0528,     126.,     6.68, 7.79e+06,    3e-09, 1.56e-19, 1.51e-08
     1.56,  3.3e+08, 1.56e-19,      0.3,      0.5,      0.2,    -3.04,   0.0165
    5e+15, 4.14e-21,   0.0702,      0.5, 2.49e-10, 4.02e+06, 1.98e+06,      10.
       0.,      0.3,       1., 2.96e+11, 1.99e+11, 1.27e+11, 5.01e+09
** ----------------------------------------------------------------
** 
** STEP: Step-1
** 
*Step, name=Step-1, nlgeom=YES, inc=100000
*Static
0.001, 1., 1e-08, 0.001
** 
** BOUNDARY CONDITIONS
** 
** Name: BC-1 Type: Symmetry/Antisymmetry/Encastre
*Boundary
Set-1, XSYMM
** Name: BC-2 Type: Symmetry/Antisymmetry/Encastre
*Boundary
Set-2, YSYMM
** Name: BC-3 Type: Symmetry/Antisymmetry/Encastre
*Boundary
Set-3, ZSYMM
** Name: BC-4 Type: Displacement/Rotation
*Boundary, amplitude=Amp-1
Set-4, 2, 2, 1.
** 
** OUTPUT REQUESTS
** 
*Restart, write, frequency=0
** 
** FIELD OUTPUT: F-Output-1
** 
*Output, field
*Node Output
CF, RF, U
*Element Output, directions=YES
LE, PE, PEEQ, PEMAG, S, SDV
*Contact Output
CDISP, CSTRESS
** 
** HISTORY OUTPUT: H-Output-1
** 
*Output, history, variable=PRESELECT
*End Step
