*Heading
** Job name: GHOSH_TEST Model name: Model-1
** Generated by: Abaqus/CAE 2017
*Preprint, echo=NO, model=NO, history=NO, contact=NO
** ----------------------------------------------------------------
** 
** PART INSTANCE: Part-1-1
** 
*Node
      1,           0.,          2.5,          2.5
      2,          0.5,          2.5,          2.5
      3,          0.5,           3.,          2.5
      4,           0.,           3.,          2.5
      5,           0.,          2.5,          0.5
      6,          0.5,          2.5,          0.5
      7,          0.5,           3.,          0.5
      8,           0.,           3.,          0.5
      9,           0.,          0.5,          2.5
     10,          0.5,          0.5,          2.5
     11,           0.,          0.5,          0.5
     12,          0.5,          0.5,          0.5
     13,          0.5,           0.,          2.5
     14,           0.,           0.,          2.5
     15,          0.5,           0.,          0.5
     16,           0.,           0.,          0.5
     17,          2.5,          0.5,          2.5
     18,          2.5,           0.,          2.5
     19,          2.5,          0.5,          0.5
     20,          2.5,           0.,          0.5
** ... 2177 like lines cut
*Element, type=C3D8
 1,   86,  513, 1469,  499,    1,   65,  497,   68
 2,  513,   94,  506, 1469,   65,    2,   66,  497
 3,  499, 1469,  520,   73,   68,  497,   67,    4
 4, 1469,  506,   93,  520,  497,   66,    3,   67
 5,   85,  514, 1470,  500,   86,  513, 1469,  499
 6,  514,   95,  507, 1470,  513,   94,  506, 1469
 7,  500, 1470,  521,   74,  499, 1469,  520,   73
 8, 1470,  507,   92,  521, 1469,  506,   93,  520
 9,   84,  515, 1471,  501,   85,  514, 1470,  500
10,  515,   96,  508, 1471,  514,   95,  507, 1470
11,  501, 1471,  522,   75,  500, 1470,  521,   74
12, 1471,  508,   91,  522, 1470,  507,   92,  521
13,   83,  516, 1472,  502,   84,  515, 1471,  501
14,  516,   97,  509, 1472,  515,   96,  508, 1471
15,  502, 1472,  523,   76,  501, 1471,  522,   75
16, 1472,  509,   90,  523, 1471,  508,   91,  522
17,   82,  517, 1473,  503,   83,  516, 1472,  502
18,  517,   98,  510, 1473,  516,   97,  509, 1472
19,  503, 1473,  524,   77,  502, 1472,  523,   76
20, 1473,  510,   89,  524, 1472,  509,   90,  523
** ... 1708 like lines cut
*Nset, nset=Part-1-1_Set-1
    2,    6,   10,   12,   17,   19,   25,   26,   94,   95,   96,   97,   98,   99,  100,  102
  103,  104,  105,  106,  107,  108,  117,  118,  119,  120,  121,  122,  123,  138,  139,  140
  141,  142,  143,  144,  165,  166,  167,  168,  169,  170,  171,  180,  181,  182,  183,  184
  185,  186,  202,  203,  204,  205,  206,  207,  208,  229,  230,  231,  232,  233,  234,  235
  236,  237,  238,  239,  240,  241,  242,  243,  244,  245,  246,  247,  248,  249,  250,  251
  252,  253,  254,  255,  256,  257,  258,  259,  260,  261,  262,  263,  590,  591,  592,  593
  594,  595,  596,  597,  598,  599,  600,  601,  602,  603,  604,  605,  606,  607,  608,  609
  610,  611,  612,  613,  614,  615,  616,  617,  618,  619,  620,  621,  622,  623,  624,  625
  626,  627,  628,  629,  630,  631,  632,  633,  634,  635,  636,  637,  638,  690,  691,  692
  693,  694,  695,  696,  697,  698,  699,  700,  701,  702,  703,  704,  705,  706,  707,  708
  709,  710,  711,  712,  713,  714,  715,  716,  717,  718,  719,  720,  721,  722,  723,  724
  725,  726,  727,  728,  729,  730,  731,  732,  733,  734,  735,  736,  737,  738,  811,  812
  813,  814,  815,  816,  817,  818,  819,  820,  821,  822,  823,  824,  825,  826,  827,  828
  829,  830,  831,  832,  833,  834,  835,  836,  837,  838,  839,  840,  841,  842,  843,  844
  845,  846,  847,  848,  849,  850,  851,  852,  853,  854,  855,  856,  857,  858,  859,  860
  861,  862,  863,  864,  865,  866,  867,  868,  869,  870,  871,  872,  873,  874,  875,  876
  877,  878,  879,  880,  881,  882,  883,  884,  885,  886,  887,  888,  889,  890,  891,  892
  893,  894,  895,  896,  897,  898,  899,  900,  901,  902,  903,  904,  905,  906,  907,  908
  909,  910,  911,  912,  913,  914,  915,  916,  917,  918,  919,  920,  921,  922,  923,  924
  925,  926,  927,  928,  929,  930,  931,  932,  933,  934,  935,  936,  937,  938,  939,  940
** ... 26 like lines cut
*Elset, elset=Part-1-1_Set-1, generate
 353,  864,    1
*Nset, nset=Part-1-1_Set-2
    1,    2,    3,    4,    5,    6,    7,    8,    9,   10,   11,   12,   13,   14,   15,   16
   17,   18,   19,   20,   21,   22,   23,   24,   25,   26,   27,   28,   29,   30,   31,   32
   33,   34,   35,   36,   37,   38,   39,   40,   41,   42,   43,   44,   45,   46,   47,   48
   49,   50,   51,   52,   53,   54,   55,   56,   57,   58,   59,   60,   61,   62,   63,   64
   65,   66,   67,   68,   69,   70,   71,   72,   73,   74,   75,   76,   77,   78,   79,   80
   81,   82,   83,   84,   85,   86,   87,   88,   89,   90,   91,   92,   93,   94,   95,   96
   97,   98,   99,  100,  101,  102,  103,  104,  105,  106,  107,  108,  109,  110,  111,  112
  113,  114,  115,  116,  117,  118,  119,  120,  121,  122,  123,  124,  125,  126,  127,  128
  129,  130,  131,  132,  133,  134,  135,  136,  137,  138,  139,  140,  141,  142,  143,  144
  145,  146,  147,  148,  149,  150,  151,  152,  153,  154,  155,  156,  157,  158,  159,  160
  161,  162,  163,  164,  165,  166,  167,  168,  169,  170,  171,  172,  173,  174,  175,  176
  177,  178,  179,  180,  181,  182,  183,  184,  185,  186,  187,  188,  189,  190,  191,  192
  193,  194,  195,  196,  197,  198,  199,  200,  201,  202,  203,  204,  205,  206,  207,  208
  209,  210,  211,  212,  213,  214,  215,  216,  217,  218,  219,  220,  221,  222,  223,  224
  225,  226,  227,  228,  229,  230,  231,  232,  233,  234,  235,  236,  237,  238,  239,  240
  241,  242,  243,  244,  245,  246,  247,  248,  249,  250,  251,  252,  253,  254,  255,  256
  257,  258,  259,  260,  261,  262,  263,  264,  265,  266,  267,  268,  269,  270,  271,  272
  273,  274,  275,  276,  277,  278,  279,  280,  281,  282,  283,  284,  285,  286,  287,  288
  289,  290,  291,  292,  293,  294,  295,  296,  297,  298,  299,  300,  301,  302,  303,  304
  305,  306,  307,  308,  309,  310,  311,  312,  313,  314,  315,  316,  317,  318,  319,  320
** ... 96 like lines cut
*Elset, elset=Part-1-1_Set-2
    1,    2,    3,    4,    5,    6,    7,    8,    9,   10,   11,   12,   13,   14,   15,   16
   17,   18,   19,   20,   21,   22,   23,   24,   25,   26,   27,   28,   29,   30,   31,   32
   33,   34,   35,   36,   37,   38,   39,   40,   41,   42,   43,   44,   45,   46,   47,   48
   49,   50,   51,   52,   53,   54,   55,   56,   57,   58,   59,   60,   61,   62,   63,   64
   65,   66,   67,   68,   69,   70,   71,   72,   73,   74,   75,   76,   77,   78,   79,   80
   81,   82,   83,   84,   85,   86,   87,   88,   89,   90,   91,   92,   93,   94,   95,   96
   97,   98,   99,  100,  101,  102,  103,  104,  105,  106,  107,  108,  109,  110,  111,  112
  113,  114,  115,  116,  117,  118,  119,  120,  121,  122,  123,  124,  125,  126,  127,  128
  129,  130,  131,  132,  133,  134,  135,  136,  137,  138,  139,  140,  141,  142,  143,  144
  145,  146,  147,  148,  149,  150,  151,  152,  153,  154,  155,  156,  157,  158,  159,  160
  161,  162,  163,  164,  165,  166,  167,  168,  169,  170,  171,  172,  173,  174,  175,  176
  177,  178,  179,  180,  181,  182,  183,  184,  185,  186,  187,  188,  189,  190,  191,  192
  193,  194,  195,  196,  197,  198,  199,  200,  201,  202,  203,  204,  205,  206,  207,  208
  209,  210,  211,  212,  213,  214,  215,  216,  217,  218,  219,  220,  221,  222,  223,  224
  225,  226,  227,  228,  229,  230,  231,  232,  233,  234,  235,  236,  237,  238,  239,  240
  241,  242,  243,  244,  245,  246,  247,  248,  249,  250,  251,  252,  253,  254,  255,  256
  257,  258,  259,  260,  261,  262,  263,  264,  265,  266,  267,  268,  269,  270,  271,  272
  273,  274,  275,  276,  277,  278,  279,  280,  281,  282,  283,  284,  285,  286,  287,  288
  289,  290,  291,  292,  293,  294,  295,  296,  297,  298,  299,  300,  301,  302,  303,  304
  305,  306,  307,  308,  309,  310,  311,  312,  313,  314,  315,  316,  317,  318,  319,  320
** ... 56 like lines cut
*Nset, nset=Part-1-1_Set-3
    2,    6,   10,   12,   17,   19,   25,   26,   94,   95,   96,   97,   98,   99,  100,  102
  103,  104,  105,  106,  107,  108,  117,  118,  119,  120,  121,  122,  123,  138,  139,  140
  141,  142,  143,  144,  165,  166,  167,  168,  169,  170,  171,  180,  181,  182,  183,  184
  185,  186,  202,  203,  204,  205,  206,  207,  208,  229,  230,  231,  232,  233,  234,  235
  236,  237,  238,  239,  240,  241,  242,  243,  244,  245,  246,  247,  248,  249,  250,  251
  252,  253,  254,  255,  256,  257,  258,  259,  260,  261,  262,  263,  590,  591,  592,  593
  594,  595,  596,  597,  598,  599,  600,  601,  602,  603,  604,  605,  606,  607,  608,  609
  610,  611,  612,  613,  614,  615,  616,  617,  618,  619,  620,  621,  622,  623,  624,  625
  626,  627,  628,  629,  630,  631,  632,  633,  634,  635,  636,  637,  638,  690,  691,  692
  693,  694,  695,  696,  697,  698,  699,  700,  701,  702,  703,  704,  705,  706,  707,  708
  709,  710,  711,  712,  713,  714,  715,  716,  717,  718,  719,  720,  721,  722,  723,  724
  725,  726,  727,  728,  729,  730,  731,  732,  733,  734,  735,  736,  737,  738,  811,  812
  813,  814,  815,  816,  817,  818,  819,  820,  821,  822,  823,  824,  825,  826,  827,  828
  829,  830,  831,  832,  833,  834,  835,  836,  837,  838,  839,  840,  841,  842,  843,  844
  845,  846,  847,  848,  849,  850,  851,  852,  853,  854,  855,  856,  857,  858,  859,  860
  861,  862,  863,  864,  865,  866,  867,  868,  869,  870,  871,  872,  873,  874,  875,  876
  877,  878,  879,  880,  881,  882,  883,  884,  885,  886,  887,  888,  889,  890,  891,  892
  893,  894,  895,  896,  897,  898,  899,  900,  901,  902,  903,  904,  905,  906,  907,  908
  909,  910,  911,  912,  913,  914,  915,  916,  917,  918,  919,  920,  921,  922,  923,  924
  925,  926,  927,  928,  929,  930,  931,  932,  933,  934,  935,  936,  937,  938,  939,  940
** ... 26 like lines cut
*Elset, elset=Part-1-1_Set-3, generate
 353,  864,    1
*Nset, nset=Part-1-1_Set-4
    1,    2,    3,    4,    5,    6,    7,    8,    9,   10,   11,   12,   13,   14,   15,   16
   17,   18,   19,   20,   21,   22,   23,   24,   25,   26,   27,   28,   29,   30,   31,   32
   33,   34,   35,   36,   37,   38,   39,   40,   41,   42,   43,   44,   45,   46,   47,   48
   49,   50,   51,   52,   53,   54,   55,   56,   57,   58,   59,   60,   61,   62,   63,   64
   65,   66,   67,   68,   69,   70,   71,   72,   73,   74,   75,   76,   77,   78,   79,   80
   81,   82,   83,   84,   85,   86,   87,   88,   89,   90,   91,   92,   93,   94,   95,   96
   97,   98,   99,  100,  101,  102,  103,  104,  105,  106,  107,  108,  109,  110,  111,  112
  113,  114,  115,  116,  117,  118,  119,  120,  121,  122,  123,  124,  125,  126,  127,  128
  129,  130,  131,  132,  133,  134,  135,  136,  137,  138,  139,  140,  141,  142,  143,  144
  145,  146,  147,  148,  149,  150,  151,  152,  153,  154,  155,  156,  157,  158,  159,  160
  161,  162,  163,  164,  165,  166,  167,  168,  169,  170,  171,  172,  173,  174,  175,  176
  177,  178,  179,  180,  181,  182,  183,  184,  185,  186,  187,  188,  189,  190,  191,  192
  193,  194,  195,  196,  197,  198,  199,  200,  201,  202,  203,  204,  205,  206,  207,  208
  209,  210,  211,  212,  213,  214,  215,  216,  217,  218,  219,  220,  221,  222,  223,  224
  225,  226,  227,  228,  229,  230,  231,  232,  233,  234,  235,  236,  237,  238,  239,  240
  241,  242,  243,  244,  245,  246,  247,  248,  249,  250,  251,  252,  253,  254,  255,  256
  257,  258,  259,  260,  261,  262,  263,  264,  265,  266,  267,  268,  269,  270,  271,  272
  273,  274,  275,  276,  277,  278,  279,  280,  281,  282,  283,  284,  285,  286,  287,  288
  289,  290,  291,  292,  293,  294,  295,  296,  297,  298,  299,  300,  301,  302,  303,  304
  305,  306,  307,  308,  309,  310,  311,  312,  313,  314,  315,  316,  317,  318,  319,  320
** ... 96 like lines cut
*Elset, elset=Part-1-1_Set-4
    1,    2,    3,    4,    5,    6,    7,    8,    9,   10,   11,   12,   13,   14,   15,   16
   17,   18,   19,   20,   21,   22,   23,   24,   25,   26,   27,   28,   29,   30,   31,   32
   33,   34,   35,   36,   37,   38,   39,   40,   41,   42,   43,   44,   45,   46,   47,   48
   49,   50,   51,   52,   53,   54,   55,   56,   57,   58,   59,   60,   61,   62,   63,   64
   65,   66,   67,   68,   69,   70,   71,   72,   73,   74,   75,   76,   77,   78,   79,   80
   81,   82,   83,   84,   85,   86,   87,   88,   89,   90,   91,   92,   93,   94,   95,   96
   97,   98,   99,  100,  101,  102,  103,  104,  105,  106,  107,  108,  109,  110,  111,  112
  113,  114,  115,  116,  117,  118,  119,  120,  121,  122,  123,  124,  125,  126,  127,  128
  129,  130,  131,  132,  133,  134,  135,  136,  137,  138,  139,  140,  141,  142,  143,  144
  145,  146,  147,  148,  149,  150,  151,  152,  153,  154,  155,  156,  157,  158,  159,  160
  161,  162,  163,  164,  165,  166,  167,  168,  169,  170,  171,  172,  173,  174,  175,  176
  177,  178,  179,  180,  181,  182,  183,  184,  185,  186,  187,  188,  189,  190,  191,  192
  193,  194,  195,  196,  197,  198,  199,  200,  201,  202,  203,  204,  205,  206,  207,  208
  209,  210,  211,  212,  213,  214,  215,  216,  217,  218,  219,  220,  221,  222,  223,  224
  225,  226,  227,  228,  229,  230,  231,  232,  233,  234,  235,  236,  237,  238,  239,  240
  241,  242,  243,  244,  245,  246,  247,  248,  249,  250,  251,  252,  253,  254,  255,  256
  257,  258,  259,  260,  261,  262,  263,  264,  265,  266,  267,  268,  269,  270,  271,  272
  273,  274,  275,  276,  277,  278,  279,  280,  281,  282,  283,  284,  285,  286,  287,  288
  289,  290,  291,  292,  293,  294,  295,  296,  297,  298,  299,  300,  301,  302,  303,  304
  305,  306,  307,  308,  309,  310,  311,  312,  313,  314,  315,  316,  317,  318,  319,  320
** ... 56 like lines cut
** Section: Section-2
*Solid Section, elset=Part-1-1_Set-4, material=Material-2-Cor
,
** Section: Section-1
*Solid Section, elset=Part-1-1_Set-3, material=Material-1-Cor
,
*System
*Nset, nset=Set-2
   13,   14,   15,   16,   18,   20,   21,   23,   39,   40,   42,   43,   57,   58,   62,   63
  147,  150,  151,  152,  153,  154,  155,  156,  157,  158,  159,  160,  161,  162,  163,  164
  172,  173,  174,  175,  176,  177,  178,  187,  188,  189,  190,  191,  192,  193,  195,  196
  197,  198,  199,  200,  201,  209,  212,  222,  223,  224,  225,  226,  227,  228,  334,  335
  336,  344,  345,  346,  347,  348,  349,  350,  352,  354,  358,  453,  454,  455,  478,  480
  482,  490,  491,  492,  493,  494,  495,  496,  648,  649,  650,  651,  652,  653,  654,  739
  740,  741,  742,  743,  744,  745,  746,  747,  748,  749,  750,  751,  752,  753,  754,  755
  756,  757,  758,  759,  760,  761,  762,  763,  764,  765,  766,  767,  768,  769,  770,  771
  772,  773,  774,  775,  776,  777,  778,  779,  780,  781,  782,  783,  784,  785,  786,  787
  797,  798,  799,  800,  801,  802,  803, 1128, 1146, 1147, 1148, 1149, 1150, 1151, 1152, 1155
 1317, 1391, 1455, 1456, 1457, 1458, 1459, 1460, 1461
*Elset, elset=Set-2
  161,  163,  165,  167,  169,  171,  173,  175,  177,  179,  181,  183,  185,  187,  189,  191
  201,  202,  203,  204,  205,  206,  207,  208,  217,  218,  219,  220,  221,  222,  223,  224
  233,  234,  235,  236,  237,  238,  239,  240,  249,  250,  251,  252,  253,  254,  255,  256
  265,  266,  267,  268,  269,  270,  271,  272,  281,  282,  283,  284,  285,  286,  287,  288
  297,  298,  299,  300,  301,  302,  303,  304,  313,  314,  315,  316,  317,  318,  319,  320
  322,  324,  326,  328,  330,  332,  334,  336,  338,  340,  342,  344,  346,  348,  350,  352
 1065, 1067, 1069, 1071, 1081, 1082, 1083, 1084, 1085, 1086, 1087, 1088, 1097, 1098, 1099, 1100
 1101, 1102, 1103, 1104, 1106, 1108, 1110, 1112, 1385, 1387, 1389, 1391, 1531, 1532, 1535, 1536
 1713, 1714, 1715, 1716, 1717, 1718, 1719, 1720, 1721, 1722, 1723, 1724, 1725, 1726, 1727, 1728
*Nset, nset=Set-3
    1,    4,    5,    8,    9,   11,   14,   16,   33,   36,   37,   40,   53,   54,   56,   57
   68,   72,   73,   74,   75,   76,   77,   78,   79,   80,   81,   82,   83,   84,   85,   86
  109,  110,  111,  112,  113,  114,  115,  124,  125,  126,  127,  128,  129,  130,  131,  132
  133,  134,  135,  136,  137,  146,  149,  151,  152,  153,  154,  155,  156,  157,  310,  311
  312,  323,  324,  325,  326,  327,  328,  329,  330,  333,  335,  431,  432,  433,  442,  443
  444,  445,  446,  447,  448,  449,  452,  454,  499,  500,  501,  502,  503,  504,  505,  541
  542,  543,  544,  545,  546,  547,  548,  549,  550,  551,  552,  553,  554,  555,  556,  557
  558,  559,  560,  561,  562,  563,  564,  565,  566,  567,  568,  569,  570,  571,  572,  573
  574,  575,  576,  577,  578,  579,  580,  581,  582,  583,  584,  585,  586,  587,  588,  589
  662,  663,  664,  665,  666,  667,  668, 1101, 1112, 1113, 1114, 1115, 1116, 1117, 1118, 1130
 1291, 1301, 1302, 1303, 1304, 1305, 1306, 1307, 1319
*Elset, elset=Set-3
    1,    3,    5,    7,    9,   11,   13,   15,   17,   19,   21,   23,   25,   27,   29,   31
   33,   35,   37,   39,   41,   43,   45,   47,   49,   51,   53,   55,   57,   59,   61,   63
   65,   67,   69,   71,   73,   75,   77,   79,   81,   83,   85,   87,   89,   91,   93,   95
   97,   99,  101,  103,  105,  107,  109,  111,  113,  115,  117,  119,  121,  123,  125,  127
  129,  131,  133,  135,  137,  139,  141,  143,  145,  147,  149,  151,  153,  155,  157,  159
  163,  164,  167,  168,  171,  172,  175,  176,  179,  180,  183,  184,  187,  188,  191,  192
 1025, 1027, 1029, 1031, 1033, 1035, 1037, 1039, 1041, 1043, 1045, 1047, 1049, 1051, 1053, 1055
 1057, 1059, 1061, 1063, 1067, 1068, 1071, 1072, 1345, 1347, 1349, 1351, 1353, 1355, 1357, 1359
 1361, 1363, 1365, 1367, 1369, 1371, 1373, 1375, 1377, 1379, 1381, 1383, 1387, 1388, 1391, 1392
*Nset, nset=Set-4
   49,   50,   51,   52,   53,   54,   55,   56,   57,   58,   59,   60,   61,   62,   63,   64
  409,  410,  411,  412,  413,  414,  415,  416,  417,  418,  419,  420,  421,  422,  423,  424
  429,  430,  431,  434,  435,  436,  437,  438,  439,  440,  441,  442,  443,  444,  445,  446
  447,  448,  451,  452,  453,  456,  457,  458,  459,  460,  461,  462,  463,  464,  465,  466
  467,  468,  469,  471,  472,  473,  476,  477,  478,  479,  483,  484,  485,  486,  487,  488
  489,  490,  491,  492,  493,  494,  495,  496, 1267, 1268, 1269, 1270, 1271, 1272, 1273, 1290
 1294, 1295, 1296, 1297, 1298, 1299, 1300, 1316, 1320, 1321, 1322, 1323, 1324, 1325, 1326, 1327
 1328, 1329, 1330, 1331, 1332, 1333, 1334, 1335, 1336, 1337, 1338, 1339, 1340, 1341, 1342, 1343
 1344, 1345, 1346, 1347, 1348, 1349, 1350, 1351, 1352, 1353, 1354, 1355, 1356, 1357, 1358, 1359
 1360, 1361, 1362, 1363, 1364, 1365, 1366, 1367, 1368, 1383, 1387, 1392, 1393, 1394, 1395, 1396
 1397, 1398, 1462, 1463, 1464, 1465, 1466, 1467, 1468
*Elset, elset=Set-4
 1329, 1330, 1331, 1332, 1333, 1334, 1335, 1336, 1337, 1338, 1339, 1340, 1341, 1342, 1343, 1344
 1349, 1350, 1351, 1352, 1369, 1370, 1371, 1372, 1373, 1374, 1375, 1376, 1377, 1378, 1379, 1380
 1381, 1382, 1383, 1384, 1389, 1390, 1391, 1392, 1457, 1458, 1459, 1460, 1461, 1462, 1463, 1464
 1465, 1466, 1467, 1468, 1469, 1470, 1471, 1472, 1473, 1474, 1475, 1476, 1477, 1478, 1479, 1480
 1481, 1482, 1483, 1484, 1485, 1486, 1487, 1488, 1489, 1490, 1491, 1492, 1493, 1494, 1495, 1496
 1497, 1498, 1499, 1500, 1501, 1502, 1503, 1504, 1505, 1506, 1507, 1508, 1509, 1510, 1511, 1512
 1513, 1514, 1515, 1516, 1517, 1518, 1519, 1520, 1525, 1526, 1527, 1528, 1533, 1534, 1535, 1536
 1553, 1554, 1555, 1556, 1557, 1558, 1559, 1560, 1561, 1562, 1563, 1564, 1565, 1566, 1567, 1568
 1705, 1706, 1707, 1708, 1709, 1710, 1711, 1712, 1721, 1722, 1723, 1724, 1725, 1726, 1727, 1728
*Nset, nset=Set-5
   13,   14,   15,   16,   18,   20,   21,   23,   39,   40,   42,   43,   57,   58,   62,   63
  147,  150,  151,  152,  153,  154,  155,  156,  157,  158,  159,  160,  161,  162,  163,  164
  172,  173,  174,  175,  176,  177,  178,  187,  188,  189,  190,  191,  192,  193,  195,  196
  197,  198,  199,  200,  201,  209,  212,  222,  223,  224,  225,  226,  227,  228,  334,  335
  336,  344,  345,  346,  347,  348,  349,  350,  352,  354,  358,  453,  454,  455,  478,  480
  482,  490,  491,  492,  493,  494,  495,  496,  648,  649,  650,  651,  652,  653,  654,  739
  740,  741,  742,  743,  744,  745,  746,  747,  748,  749,  750,  751,  752,  753,  754,  755
  756,  757,  758,  759,  760,  761,  762,  763,  764,  765,  766,  767,  768,  769,  770,  771
  772,  773,  774,  775,  776,  777,  778,  779,  780,  781,  782,  783,  784,  785,  786,  787
  797,  798,  799,  800,  801,  802,  803, 1128, 1146, 1147, 1148, 1149, 1150, 1151, 1152, 1155
 1317, 1391, 1455, 1456, 1457, 1458, 1459, 1460, 1461
*Elset, elset=Set-5
  161,  163,  165,  167,  169,  171,  173,  175,  177,  179,  181,  183,  185,  187,  189,  191
  201,  202,  203,  204,  205,  206,  207,  208,  217,  218,  219,  220,  221,  222,  223,  224
  233,  234,  235,  236,  237,  238,  239,  240,  249,  250,  251,  252,  253,  254,  255,  256
  265,  266,  267,  268,  269,  270,  271,  272,  281,  282,  283,  284,  285,  286,  287,  288
  297,  298,  299,  300,  301,  302,  303,  304,  313,  314,  315,  316,  317,  318,  319,  320
  322,  324,  326,  328,  330,  332,  334,  336,  338,  340,  342,  344,  346,  348,  350,  352
 1065, 1067, 1069, 1071, 1081, 1082, 1083, 1084, 1085, 1086, 1087, 1088, 1097, 1098, 1099, 1100
 1101, 1102, 1103, 1104, 1106, 1108, 1110, 1112, 1385, 1387, 1389, 1391, 1531, 1532, 1535, 1536
 1713, 1714, 1715, 1716, 1717, 1718, 1719, 1720, 1721, 1722, 1723, 1724, 1725, 1726, 1727, 1728
*Nset, nset=Set-6
    1,    4,    5,    8,    9,   11,   14,   16,   33,   36,   37,   40,   53,   54,   56,   57
   68,   72,   73,   74,   75,   76,   77,   78,   79,   80,   81,   82,   83,   84,   85,   86
  109,  110,  111,  112,  113,  114,  115,  124,  125,  126,  127,  128,  129,  130,  131,  132
  133,  134,  135,  136,  137,  146,  149,  151,  152,  153,  154,  155,  156,  157,  310,  311
  312,  323,  324,  325,  326,  327,  328,  329,  330,  333,  335,  431,  432,  433,  442,  443
  444,  445,  446,  447,  448,  449,  452,  454,  499,  500,  501,  502,  503,  504,  505,  541
  542,  543,  544,  545,  546,  547,  548,  549,  550,  551,  552,  553,  554,  555,  556,  557
  558,  559,  560,  561,  562,  563,  564,  565,  566,  567,  568,  569,  570,  571,  572,  573
  574,  575,  576,  577,  578,  579,  580,  581,  582,  583,  584,  585,  586,  587,  588,  589
  662,  663,  664,  665,  666,  667,  668, 1101, 1112, 1113, 1114, 1115, 1116, 1117, 1118, 1130
 1291, 1301, 1302, 1303, 1304, 1305, 1306, 1307, 1319
*Elset, elset=Set-6
    1,    3,    5,    7,    9,   11,   13,   15,   17,   19,   21,   23,   25,   27,   29,   31
   33,   35,   37,   39,   41,   43,   45,   47,   49,   51,   53,   55,   57,   59,   61,   63
   65,   67,   69,   71,   73,   75,   77,   79,   81,   83,   85,   87,   89,   91,   93,   95
   97,   99,  101,  103,  105,  107,  109,  111,  113,  115,  117,  119,  121,  123,  125,  127
  129,  131,  133,  135,  137,  139,  141,  143,  145,  147,  149,  151,  153,  155,  157,  159
  163,  164,  167,  168,  171,  172,  175,  176,  179,  180,  183,  184,  187,  188,  191,  192
 1025, 1027, 1029, 1031, 1033, 1035, 1037, 1039, 1041, 1043, 1045, 1047, 1049, 1051, 1053, 1055
 1057, 1059, 1061, 1063, 1067, 1068, 1071, 1072, 1345, 1347, 1349, 1351, 1353, 1355, 1357, 1359
 1361, 1363, 1365, 1367, 1369, 1371, 1373, 1375, 1377, 1379, 1381, 1383, 1387, 1388, 1391, 1392
*Nset, nset=Set-7
   49,   50,   51,   52,   53,   54,   55,   56,   57,   58,   59,   60,   61,   62,   63,   64
  409,  410,  411,  412,  413,  414,  415,  416,  417,  418,  419,  420,  421,  422,  423,  424
  429,  430,  431,  434,  435,  436,  437,  438,  439,  440,  441,  442,  443,  444,  445,  446
  447,  448,  451,  452,  453,  456,  457,  458,  459,  460,  461,  462,  463,  464,  465,  466
  467,  468,  469,  471,  472,  473,  476,  477,  478,  479,  483,  484,  485,  486,  487,  488
  489,  490,  491,  492,  493,  494,  495,  496, 1267, 1268, 1269, 1270, 1271, 1272, 1273, 1290
 1294, 1295, 1296, 1297, 1298, 1299, 1300, 1316, 1320, 1321, 1322, 1323, 1324, 1325, 1326, 1327
 1328, 1329, 1330, 1331, 1332, 1333, 1334, 1335, 1336, 1337, 1338, 1339, 1340, 1341, 1342, 1343
 1344, 1345, 1346, 1347, 1348, 1349, 1350, 1351, 1352, 1353, 1354, 1355, 1356, 1357, 1358, 1359
 1360, 1361, 1362, 1363, 1364, 1365, 1366, 1367, 1368, 1383, 1387, 1392, 1393, 1394, 1395, 1396
 1397, 1398, 1462, 1463, 1464, 1465, 1466, 1467, 1468
*Elset, elset=Set-7
 1329, 1330, 1331, 1332, 1333, 1334, 1335, 1336, 1337, 1338, 1339, 1340, 1341, 1342, 1343, 1344
 1349, 1350, 1351, 1352, 1369, 1370, 1371, 1372, 1373, 1374, 1375, 1376, 1377, 1378, 1379, 1380
 1381, 1382, 1383, 1384, 1389, 1390, 1391, 1392, 1457, 1458, 1459, 1460, 1461, 1462, 1463, 1464
 1465, 1466, 1467, 1468, 1469, 1470, 1471, 1472, 1473, 1474, 1475, 1476, 1477, 1478, 1479, 1480
 1481, 1482, 1483, 1484, 1485, 1486, 1487, 1488, 1489, 1490, 1491, 1492, 1493, 1494, 1495, 1496
 1497, 1498, 1499, 1500, 1501, 1502, 1503, 1504, 1505, 1506, 1507, 1508, 1509, 1510, 1511, 1512
 1513, 1514, 1515, 1516, 1517, 1518, 1519, 1520, 1525, 1526, 1527, 1528, 1533, 1534, 1535, 1536
 1553, 1554, 1555, 1556, 1557, 1558, 1559, 1560, 1561, 1562, 1563, 1564, 1565, 1566, 1567, 1568
 1705, 1706, 1707, 1708, 1709, 1710, 1711, 1712, 1721, 1722, 1723, 1724, 1725, 1726, 1727, 1728
*Nset, nset=Set-8
    3,    4,    7,    8,   29,   30,   31,   32,   35,   36,   47,   48,   49,   50,   53,   60
   67,   71,   73,   74,   75,   76,   77,   78,   79,   87,   88,   89,   90,   91,   92,   93
  288,  291,  293,  294,  295,  296,  297,  298,  299,  300,  301,  302,  303,  304,  305,  306
  309,  311,  313,  384,  386,  387,  388,  389,  390,  391,  392,  393,  394,  395,  396,  397
  398,  399,  400,  401,  402,  403,  404,  405,  406,  407,  408,  410,  411,  412,  413,  414
  415,  416,  427,  428,  430,  432,  472,  475,  520,  521,  522,  523,  524,  525,  526, 1093
 1094, 1095, 1096, 1097, 1098, 1099, 1104, 1238, 1239, 1240, 1241, 1242, 1243, 1244, 1245, 1281
 1282, 1283, 1284, 1285, 1286, 1287, 1293, 1385, 1406, 1407, 1408, 1409, 1410, 1411, 1412, 1413
 1414, 1415, 1416, 1417, 1418, 1419, 1420, 1421, 1422, 1423, 1424, 1425, 1426, 1427, 1428, 1429
 1430, 1431, 1432, 1433, 1434, 1435, 1436, 1437, 1438, 1439, 1440, 1441, 1442, 1443, 1444, 1445
 1446, 1447, 1448, 1449, 1450, 1451, 1452, 1453, 1454
*Elset, elset=Set-8
    3,    4,    7,    8,   11,   12,   15,   16,   19,   20,   23,   24,   27,   28,   31,   32
  995,  996,  999, 1000, 1003, 1004, 1007, 1008, 1011, 1012, 1015, 1016, 1019, 1020, 1023, 1024
 1027, 1028, 1031, 1032, 1275, 1276, 1279, 1280, 1282, 1284, 1286, 1288, 1290, 1292, 1294, 1296
 1298, 1300, 1302, 1304, 1306, 1308, 1310, 1312, 1314, 1316, 1318, 1320, 1322, 1324, 1326, 1328
 1330, 1332, 1334, 1336, 1338, 1340, 1342, 1344, 1347, 1348, 1351, 1352, 1522, 1524, 1526, 1528
 1570, 1572, 1574, 1576, 1578, 1580, 1582, 1584, 1586, 1588, 1590, 1592, 1594, 1596, 1598, 1600
 1602, 1604, 1606, 1608, 1610, 1612, 1614, 1616, 1618, 1620, 1622, 1624, 1626, 1628, 1630, 1632
 1634, 1636, 1638, 1640, 1642, 1644, 1646, 1648, 1650, 1652, 1654, 1656, 1658, 1660, 1662, 1664
 1666, 1668, 1670, 1672, 1674, 1676, 1678, 1680, 1682, 1684, 1686, 1688, 1690, 1692, 1694, 1696
*Nset, nset=TOPFACE
    3,    4,    7,    8,   29,   30,   31,   32,   35,   36,   47,   48,   49,   50,   53,   60
   67,   71,   73,   74,   75,   76,   77,   78,   79,   87,   88,   89,   90,   91,   92,   93
  288,  291,  293,  294,  295,  296,  297,  298,  299,  300,  301,  302,  303,  304,  305,  306
  309,  311,  313,  384,  386,  387,  388,  389,  390,  391,  392,  393,  394,  395,  396,  397
  398,  399,  400,  401,  402,  403,  404,  405,  406,  407,  408,  410,  411,  412,  413,  414
  415,  416,  427,  428,  430,  432,  472,  475,  520,  521,  522,  523,  524,  525,  526, 1093
 1094, 1095, 1096, 1097, 1098, 1099, 1104, 1238, 1239, 1240, 1241, 1242, 1243, 1244, 1245, 1281
 1282, 1283, 1284, 1285, 1286, 1287, 1293, 1385, 1406, 1407, 1408, 1409, 1410, 1411, 1412, 1413
 1414, 1415, 1416, 1417, 1418, 1419, 1420, 1421, 1422, 1423, 1424, 1425, 1426, 1427, 1428, 1429
 1430, 1431, 1432, 1433, 1434, 1435, 1436, 1437, 1438, 1439, 1440, 1441, 1442, 1443, 1444, 1445
 1446, 1447, 1448, 1449, 1450, 1451, 1452, 1453, 1454
*Elset, elset=TOPFACE
    3,    4,    7,    8,   11,   12,   15,   16,   19,   20,   23,   24,   27,   28,   31,   32
  995,  996,  999, 1000, 1003, 1004, 1007, 1008, 1011, 1012, 1015, 1016, 1019, 1020, 1023, 1024
 1027, 1028, 1031, 1032, 1275, 1276, 1279, 1280, 1282, 1284, 1286, 1288, 1290, 1292, 1294, 1296
 1298, 1300, 1302, 1304, 1306, 1308, 1310, 1312, 1314, 1316, 1318, 1320, 1322, 1324, 1326, 1328
 1330, 1332, 1334, 1336, 1338, 1340, 1342, 1344, 1347, 1348, 1351, 1352, 1522, 1524, 1526, 1528
 1570, 1572, 1574, 1576, 1578, 1580, 1582, 1584, 1586, 1588, 1590, 1592, 1594, 1596, 1598, 1600
 1602, 1604, 1606, 1608, 1610, 1612, 1614, 1616, 1618, 1620, 1622, 1624, 1626, 1628, 1630, 1632
 1634, 1636, 1638, 1640, 1642, 1644, 1646, 1648, 1650, 1652, 1654, 1656, 1658, 1660, 1662, 1664
 1666, 1668, 1670, 1672, 1674, 1676, 1678, 1680, 1682, 1684, 1686, 1688, 1690, 1692, 1694, 1696
*Amplitude, name=Amp-1, time=TOTAL TIME
             0.,              0.,             10.,              1.
** 
** MATERIALS
** 
*Material, name=Material-1
*Density
 1e-21,
*Depvar
    650,
*User Material, constants=79
1.,       0.,       0.,       0.,       1.,       0.,       0.,       0.
       1.,  0.00501,  0.00501,  0.00501,  0.00501,  0.00501,  0.00501,  0.00501
  0.00501,  0.00501,  0.00501,  0.00501,  0.00501,  0.00501,  0.00501,  0.00501
  0.00501,  0.00501,  0.00501,  296000.,  296000.,  296000.,  127000.,  127000.
  127000.,  199000.,  199000.,       0.,       0.,       0.,  199000.,       0.
       0.,       0.,       0.,       0.,       0.,       0.,       0.,       0.
       0.,   0.0528,     126.,     6.68,     7.79,    0.003, 1.56e-07,   0.0151
     1.56,     330., 1.56e-07,      0.3,      0.5,      0.2,    -3.04,   0.0165
    5000., 4.14e-09,   0.0702,      0.5, 0.000249,     4.02,     1.98,      10.
       0.,      0.3,       1.,  296000.,  199000.,  127000.,  0.00501
*Material, name=Material-1-Cor
*Density
 1e-21,
*Depvar
    650,
*User Material, constants=79
1.,       0.,       0.,       0.,       1.,       0.,       0.,       0.
       1.,  0.00501,  0.00501,  0.00501,  0.00501,  0.00501,  0.00501,  0.00501
  0.00501,  0.00501,  0.00501,  0.00501,  0.00501,  0.00501,  0.00501,  0.00501
  0.00501,  0.00501,  0.00501,  296000.,  296000.,  296000.,  127000.,  127000.
  127000.,  199000.,  199000.,       0.,       0.,       0.,  199000.,       0.
       0.,       0.,       0.,       0.,       0.,       0.,       0.,       0.
       0.,   0.0528,     126.,     6.68,     7.79,  0.00083, 1.56e-07,  0.00418
     1.56,     330., 1.56e-07,      0.3,      0.5,      0.2,    0.301,   0.0596
    5000., 4.14e-09,   0.0702,      0.5, 0.000249,     4.02,     1.98,      10.
       0.,      0.3,       1.,  296000.,  199000.,  127000.,  0.00501
*Material, name=Material-1S
*Density
 1e-21,
*Depvar
    650,
*User Material, constants=79
1.,       0.,       0.,       0.,       1.,       0.,       0.,       0.
       1., 5.01e+09, 5.01e+09, 5.01e+09, 5.01e+09, 5.01e+09, 5.01e+09, 5.01e+09
 5.01e+09, 5.01e+09, 5.01e+09, 5.01e+09, 5.01e+09, 5.01e+09, 5.01e+09, 5.01e+09
 5.01e+09, 5.01e+09, 5.01e+09, 2.96e+11, 2.96e+11, 2.96e+11, 1.27e+11, 1.27e+11
 1.27e+11, 1.99e+11, 1.99e+11,       0.,       0.,       0., 1.99e+11,       0.
       0.,       0.,       0.,       0.,       0.,       0.,       0.,       0.
       0.,   0.0528,     126.,     6.68, 7.79e+06,    3e-09, 1.56e-19, 1.51e-08
     1.56,  3.3e+08, 1.56e-19,      0.3,      0.5,      0.2,    -3.04,   0.0165
    5e+15, 4.14e-21,   0.0702,      0.5, 2.49e-10, 4.02e+06, 1.98e+06,      10.
       0.,      0.3,       1., 2.96e+11, 1.99e+11, 1.27e+11, 5.01e+09
*Material, name=Material-2
*Density
 1e-21,
*Depvar
    650,
*User Material, constants=79
1.,       0.,       0.,       0.,       1.,       0.,       0.,       0.
       1.,  0.00501,  0.00501,  0.00501,  0.00501,  0.00501,  0.00501,  0.00501
  0.00501,  0.00501,  0.00501,  0.00501,  0.00501,  0.00501,  0.00501,  0.00501
  0.00501,  0.00501,  0.00501,  296000.,  296000.,  296000.,  127000.,  127000.
  127000.,  199000.,  199000.,       0.,       0.,       0.,  199000.,       0.
       0.,       0.,       0.,       0.,       0.,       0.,       0.,       0.
       0.,   0.0528,     126.,     6.68,     7.79,    0.003, 1.56e-07,   0.0151
       0.,       0., 1.56e-07,      0.3,      0.5,      0.2,    -3.04,   0.0165
    5000., 4.14e-09,   0.0702,      0.5, 0.000249,     4.02,     1.98,      10.
       0.,      0.3,       1.,  296000.,  199000.,  127000.,  0.00501
*Material, name=Material-2-Cor
*Density
 1e-21,
*Depvar
    650,
*User Material, constants=79
1.,       0.,       0.,       0.,       1.,       0.,       0.,       0.
       1.,  0.00501,  0.00501,  0.00501,  0.00501,  0.00501,  0.00501,  0.00501
  0.00501,  0.00501,  0.00501,  0.00501,  0.00501,  0.00501,  0.00501,  0.00501
  0.00501,  0.00501,  0.00501,  296000.,  296000.,  296000.,  127000.,  127000.
  127000.,  199000.,  199000.,       0.,       0.,       0.,  199000.,       0.
       0.,       0.,       0.,       0.,       0.,       0.,       0.,       0.
       0.,   0.0528,     126.,     6.68,     7.79,  0.00083, 1.56e-07,  0.00418
       0.,       0., 1.56e-07,      0.3,      0.5,      0.2,    0.301,       0.
       0., 4.14e-09,   0.0702,      0.5, 0.000249,     4.02,     1.98,      10.
       0.,      0.3,       1.,  296000.,  199000.,  127000.,  0.00501
*Material, name=Material-2S
*Density
 1e-21,
*Depvar
    650,
*User Material, constants=79
1.,       0.,       0.,       0.,       1.,       0.,       0.,       0.
       1., 5.01e+09, 5.01e+09, 5.01e+09, 5.01e+09, 5.01e+09, 5.01e+09, 5.01e+09
 5.01e+09, 5.01e+09, 5.01e+09, 5.01e+09, 5.01e+09, 5.01e+09, 5.01e+09, 5.01e+09
 5.01e+09, 5.01e+09, 5.01e+09, 2.96e+11, 2.96e+11, 2.96e+11, 1.27e+11, 1.27e+11
 1.27e+11, 1.99e+11, 1.99e+11,       0.,       0.,       0., 1.99e+11,       0.
       0.,       0.,       0.,       0.,       0.,       0.,       0.,       0.
       0.,   0.0528,     126.,     6.68, 7.79e+06,    3e-09, 1.56e-19, 1.51e-08
       0.,       0., 1.56e-19,      0.3,      0.5,      0.2,    -3.04,   0.0165
    5e+15, 4.14e-21,   0.0702,      0.5, 2.49e-10, 4.02e+06, 1.98e+06,      10.
       0.,      0.3,       1., 2.96e+11, 1.99e+11, 1.27e+11, 5.01e+09
** 
** CONTACT INITIALIZATION DATA
** 
*Contact Initialization Data, name=CInit-1
** ----------------------------------------------------------------
** 
** STEP: Step-1
** 
*Step, name=Step-1, nlgeom=YES, inc=1000000
*Static
0.001, 10., 1e-08, 0.01
** 
** BOUNDARY CONDITIONS
** 
** Name: BC-5 Type: Displacement/Rotation
*Boundary
Set-5, 2, 2
** Name: BC-6 Type: Displacement/Rotation
*Boundary
Set-6, 1, 1
** Name: BC-7 Type: Displacement/Rotation
*Boundary
Set-7, 3, 3
** Name: BC-8 Type: Displacement/Rotation
*Boundary, amplitude=Amp-1
Set-8, 2, 2, 0.4
** 
** OUTPUT REQUESTS
** 
*Restart, write, frequency=0
** 
** FIELD OUTPUT: F-Output-1
** 
*Output, field, number interval=100, time marks=NO
*Node Output
CF, RF, U
*Element Output, directions=YES
LE, PE, PEEQ, PEMAG, S, SDV
*Contact Output
CDISP, CSTRESS
** 
** HISTORY OUTPUT: H-Output-1
** 
*Output, history, number interval=100, time marks=NO
*Node Output, nset=TOPFACE
RF1, RF2, RF3, U1, U2, U3
*End Step
